/*--------------------------------*- C++ -*----------------------------------*\
| =========                 |                                                 |
| \\      /  F ield         | OpenFOAM: The Open Source CFD Toolbox           |
|  \\    /   O peration     | Version:  v1906                                 |
|   \\  /    A nd           | Web:      www.OpenFOAM.com                      |
|    \\/     M anipulation  |                                                 |
\*---------------------------------------------------------------------------*/
FoamFile
{
    version     2.0;
    format      ascii;
    class       featureEdgeMesh;
    location    "constant/triSurface";
    object      hull_trim.eMesh;
}
// * * * * * * * * * * * * * * * * * * * * * * * * * * * * * * * * * * * * * //


// points:

64
(
(-0.006968708 0.333333 -0.03615236)
(-0.09401429 0.333333 -0.03952511)
(-0.1810594 0.333333 -0.04289785)
(-0.2681051 0.333333 -0.0462706)
(-0.3551507 0.333333 -0.04964335)
(-0.4421964 0.333333 -0.05301611)
(-0.5292421 0.333333 -0.05638886)
(-0.6162878 0.333333 -0.05976162)
(-0.7033335 0.333333 -0.06313437)
(-0.7903792 0.333333 -0.06650712)
(-0.8774248 0.333333 -0.06987988)
(-0.9644705 0.333333 -0.07325263)
(-1.051515 0.333333 -0.07662535)
(-1.13856 0.333333 -0.07999806)
(-1.225605 0.333333 -0.08337078)
(-1.312649 0.333333 -0.0867435)
(-0.09401429 -0.313332 -0.03952511)
(-0.006968708 -0.313332 -0.03615236)
(-0.006968708 -0.333332 -0.03615236)
(-0.09401429 -0.333332 -0.03952511)
(-0.2681051 -0.313332 -0.0462706)
(-0.1810594 -0.313332 -0.04289785)
(-0.1810594 -0.333332 -0.04289785)
(-0.2681051 -0.333332 -0.0462706)
(-0.4421964 -0.313332 -0.05301611)
(-0.3551507 -0.313332 -0.04964335)
(-0.3551507 -0.333332 -0.04964335)
(-0.4421964 -0.333332 -0.05301611)
(-0.5292421 -0.333332 -0.05638886)
(-0.6162878 -0.333332 -0.05976162)
(-0.6162878 -0.313332 -0.05976162)
(-0.5292421 -0.313332 -0.05638886)
(-0.7033335 -0.333332 -0.06313437)
(-0.7033335 -0.313332 -0.06313437)
(-0.7903792 -0.333332 -0.06650712)
(-0.7903792 -0.313332 -0.06650712)
(-0.9644705 -0.313332 -0.07325263)
(-0.8774248 -0.313332 -0.06987988)
(-0.8774248 -0.333332 -0.06987988)
(-0.9644705 -0.333332 -0.07325263)
(-1.051515 -0.333332 -0.07662535)
(-1.13856 -0.333332 -0.07999806)
(-1.13856 -0.313332 -0.07999806)
(-1.051515 -0.313332 -0.07662535)
(-1.225605 -0.333332 -0.08337078)
(-1.312649 -0.333332 -0.0867435)
(-1.312649 -0.313332 -0.0867435)
(-1.225605 -0.313332 -0.08337078)
(-0.006968708 0.313333 -0.03615236)
(-0.09401429 0.313333 -0.03952511)
(-0.1810594 0.313333 -0.04289785)
(-0.2681051 0.313333 -0.0462706)
(-0.3551507 0.313333 -0.04964335)
(-0.4421964 0.313333 -0.05301611)
(-0.5292421 0.313333 -0.05638886)
(-0.6162878 0.313333 -0.05976162)
(-0.7033335 0.313333 -0.06313437)
(-0.7903792 0.313333 -0.06650712)
(-0.8774248 0.313333 -0.06987988)
(-0.9644705 0.313333 -0.07325263)
(-1.051515 0.313333 -0.07662535)
(-1.13856 0.313333 -0.07999806)
(-1.225605 0.313333 -0.08337078)
(-1.312649 0.313333 -0.0867435)
)


// edges:

60
(
(0 1)
(1 2)
(3 4)
(4 5)
(2 3)
(6 7)
(7 8)
(9 10)
(11 12)
(10 11)
(8 9)
(5 6)
(13 14)
(12 13)
(14 15)
(16 17)
(18 19)
(20 21)
(22 23)
(21 16)
(19 22)
(24 25)
(26 27)
(28 29)
(30 31)
(27 28)
(31 24)
(25 20)
(23 26)
(29 32)
(33 30)
(32 34)
(35 33)
(36 37)
(38 39)
(37 35)
(34 38)
(40 41)
(42 43)
(44 45)
(46 47)
(41 44)
(47 42)
(43 36)
(39 40)
(48 49)
(50 51)
(49 50)
(52 53)
(54 55)
(53 54)
(51 52)
(55 56)
(56 57)
(58 59)
(57 58)
(60 61)
(62 63)
(61 62)
(59 60)
)

// * * * * * * * * * * * * * * * * * * * * * * * * * * * * * * * * * * * * * //


// ************************************************************************* //
