/*--------------------------------*- C++ -*----------------------------------*\
| =========                 |                                                 |
| \\      /  F ield         | OpenFOAM: The Open Source CFD Toolbox           |
|  \\    /   O peration     | Version:  v1912                                 |
|   \\  /    A nd           | Website:  www.openfoam.com                      |
|    \\/     M anipulation  |                                                 |
\*---------------------------------------------------------------------------*/
FoamFile
{
    version     2.0;
    format      ascii;
    class       featureEdgeMesh;
    location    "constant/triSurface";
    object      outerCylinder.eMesh;
}
// * * * * * * * * * * * * * * * * * * * * * * * * * * * * * * * * * * * * * //


// points:

512
(
(-2.441333 0.499853 -0.01212277)
(-2.441333 0.5 -1.224647e-16)
(-2.441333 0.4994064 -0.02435703)
(-2.441333 0.4986518 -0.03669317)
(-2.441333 0.4976229 -0.04869756)
(-2.441333 0.4963479 -0.06032237)
(-2.441333 0.4947876 -0.07200833)
(-2.441333 0.4929367 -0.08374592)
(-2.441333 0.4907901 -0.09552524)
(-2.441333 0.4883431 -0.107336)
(-2.441333 0.4855915 -0.1191675)
(-2.441333 0.4825315 -0.1310088)
(-2.441333 0.47916 -0.1428485)
(-2.441333 0.4754741 -0.154675)
(-2.441333 0.4714717 -0.1664764)
(-2.441333 0.4671513 -0.1782406)
(-2.441333 0.4625116 -0.1899552)
(-2.441333 0.4575525 -0.2016077)
(-2.441333 0.4522742 -0.2131855)
(-2.441333 0.4466774 -0.2246759)
(-2.441333 0.4408837 -0.2358422)
(-2.441333 0.434836 -0.2468151)
(-2.441333 0.4284932 -0.2576694)
(-2.441333 0.4218587 -0.2683938)
(-2.441333 0.4149363 -0.2789764)
(-2.441333 0.4077305 -0.289406)
(-2.441333 0.4002464 -0.2996713)
(-2.441333 0.3924895 -0.3097612)
(-2.441333 0.3844661 -0.3196651)
(-2.441333 0.3761831 -0.3293725)
(-2.441333 0.3676477 -0.3388734)
(-2.441333 0.3588679 -0.3481578)
(-2.441333 0.3498518 -0.3572166)
(-2.441333 0.3406084 -0.3660409)
(-2.441333 0.3311469 -0.3746221)
(-2.441333 0.321477 -0.3829524)
(-2.441333 0.3116087 -0.3910244)
(-2.441333 0.3015523 -0.398831)
(-2.441333 0.2913187 -0.4063661)
(-2.441333 0.2809187 -0.4136238)
(-2.441333 0.2703635 -0.4205991)
(-2.441333 0.2596646 -0.4272872)
(-2.441333 0.2488334 -0.4336842)
(-2.441333 0.2378816 -0.4397867)
(-2.441333 0.2268209 -0.445592)
(-2.441333 0.2156631 -0.451098)
(-2.441333 0.2044201 -0.456303)
(-2.441333 0.1931034 -0.4612061)
(-2.441333 0.1817247 -0.465807)
(-2.441333 0.1702957 -0.4701057)
(-2.441333 0.1588277 -0.4741031)
(-2.441333 0.1473319 -0.4778005)
(-2.441333 0.1358194 -0.4811997)
(-2.441333 0.124301 -0.4843029)
(-2.441333 0.1127871 -0.487113)
(-2.441333 0.1012882 -0.4896332)
(-2.441333 0.08981415 -0.4918673)
(-2.441333 0.07775881 -0.4939166)
(-2.441333 0.06568375 -0.4956669)
(-2.441333 0.0536126 -0.4971174)
(-2.441333 0.04158232 -0.4982679)
(-2.441333 0.02966073 -0.4991195)
(-2.441333 0.01800197 -0.4996758)
(-2.441333 0.006061687 -0.4999633)
(-2.441333 -6.82121e-15 -0.5)
(-2.441333 -0.01212277 -0.499853)
(-2.441333 -0.02435703 -0.4994064)
(-2.441333 -0.03669317 -0.4986518)
(-2.441333 -0.04869756 -0.4976229)
(-2.441333 -0.06032237 -0.4963479)
(-2.441333 -0.07200833 -0.4947876)
(-2.441333 -0.08374592 -0.4929367)
(-2.441333 -0.09552524 -0.4907901)
(-2.441333 -0.107336 -0.4883431)
(-2.441333 -0.1191675 -0.4855915)
(-2.441333 -0.1310088 -0.4825315)
(-2.441333 -0.1428485 -0.47916)
(-2.441333 -0.154675 -0.4754741)
(-2.441333 -0.1664764 -0.4714717)
(-2.441333 -0.1782406 -0.4671513)
(-2.441333 -0.1899552 -0.4625116)
(-2.441333 -0.2016077 -0.4575525)
(-2.441333 -0.2131855 -0.4522742)
(-2.441333 -0.2246759 -0.4466774)
(-2.441333 -0.2358422 -0.4408837)
(-2.441333 -0.2468151 -0.434836)
(-2.441333 -0.2576694 -0.4284932)
(-2.441333 -0.2683938 -0.4218587)
(-2.441333 -0.2789764 -0.4149363)
(-2.441333 -0.289406 -0.4077305)
(-2.441333 -0.2996713 -0.4002464)
(-2.441333 -0.3097612 -0.3924895)
(-2.441333 -0.3196651 -0.3844661)
(-2.441333 -0.3293725 -0.3761831)
(-2.441333 -0.3388734 -0.3676477)
(-2.441333 -0.3481578 -0.3588679)
(-2.441333 -0.3572166 -0.3498518)
(-2.441333 -0.3660409 -0.3406084)
(-2.441333 -0.3746221 -0.3311469)
(-2.441333 -0.3829524 -0.321477)
(-2.441333 -0.3910244 -0.3116087)
(-2.441333 -0.398831 -0.3015523)
(-2.441333 -0.4063661 -0.2913187)
(-2.441333 -0.4136238 -0.2809187)
(-2.441333 -0.4205991 -0.2703635)
(-2.441333 -0.4272872 -0.2596646)
(-2.441333 -0.4336842 -0.2488334)
(-2.441333 -0.4397867 -0.2378816)
(-2.441333 -0.445592 -0.2268209)
(-2.441333 -0.451098 -0.2156631)
(-2.441333 -0.456303 -0.2044201)
(-2.441333 -0.4612061 -0.1931034)
(-2.441333 -0.465807 -0.1817247)
(-2.441333 -0.4701057 -0.1702957)
(-2.441333 -0.4741031 -0.1588277)
(-2.441333 -0.4778005 -0.1473319)
(-2.441333 -0.4811997 -0.1358194)
(-2.441333 -0.4843029 -0.124301)
(-2.441333 -0.487113 -0.1127871)
(-2.441333 -0.4896332 -0.1012882)
(-2.441333 -0.4918673 -0.08981415)
(-2.441333 -0.4939166 -0.07775881)
(-2.441333 -0.4956669 -0.06568375)
(-2.441333 -0.4971174 -0.0536126)
(-2.441333 -0.4982679 -0.04158232)
(-2.441333 -0.4991195 -0.02966073)
(-2.441333 -0.4996758 -0.01800197)
(-2.441333 -0.4999633 -0.006061687)
(-2.441333 -0.5 6.123234e-17)
(-2.441333 -0.499853 0.01212277)
(-2.441333 -0.4994064 0.02435703)
(-2.441333 -0.4986518 0.03669317)
(-2.441333 -0.4976229 0.04869756)
(-2.441333 -0.4963479 0.06032237)
(-2.441333 -0.4947876 0.07200833)
(-2.441333 -0.4929367 0.08374592)
(-2.441333 -0.4907901 0.09552524)
(-2.441333 -0.4883431 0.107336)
(-2.441333 -0.4855915 0.1191675)
(-2.441333 -0.4825315 0.1310088)
(-2.441333 -0.47916 0.1428485)
(-2.441333 -0.4754741 0.154675)
(-2.441333 -0.4714717 0.1664764)
(-2.441333 -0.4671513 0.1782406)
(-2.441333 -0.4625116 0.1899552)
(-2.441333 -0.4575525 0.2016077)
(-2.441333 -0.4522742 0.2131855)
(-2.441333 -0.4466774 0.2246759)
(-2.441333 -0.4408837 0.2358422)
(-2.441333 -0.434836 0.2468151)
(-2.441333 -0.4284932 0.2576694)
(-2.441333 -0.4218587 0.2683938)
(-2.441333 -0.4149363 0.2789764)
(-2.441333 -0.4077305 0.289406)
(-2.441333 -0.4002464 0.2996713)
(-2.441333 -0.3924895 0.3097612)
(-2.441333 -0.3844661 0.3196651)
(-2.441333 -0.3761831 0.3293725)
(-2.441333 -0.3676477 0.3388734)
(-2.441333 -0.3588679 0.3481578)
(-2.441333 -0.3498518 0.3572166)
(-2.441333 -0.3406084 0.3660409)
(-2.441333 -0.3311469 0.3746221)
(-2.441333 -0.321477 0.3829524)
(-2.441333 -0.3116087 0.3910244)
(-2.441333 -0.3015523 0.398831)
(-2.441333 -0.2913187 0.4063661)
(-2.441333 -0.2809187 0.4136238)
(-2.441333 -0.2703635 0.4205991)
(-2.441333 -0.2596646 0.4272872)
(-2.441333 -0.2488334 0.4336842)
(-2.441333 -0.2378816 0.4397867)
(-2.441333 -0.2268209 0.445592)
(-2.441333 -0.2156631 0.451098)
(-2.441333 -0.2044201 0.456303)
(-2.441333 -0.1931034 0.4612061)
(-2.441333 -0.1817247 0.465807)
(-2.441333 -0.1702957 0.4701057)
(-2.441333 -0.1588277 0.4741031)
(-2.441333 -0.1473319 0.4778005)
(-2.441333 -0.1358194 0.4811997)
(-2.441333 -0.124301 0.4843029)
(-2.441333 -0.1127871 0.487113)
(-2.441333 -0.1012882 0.4896332)
(-2.441333 -0.08981415 0.4918673)
(-2.441333 -0.07775881 0.4939166)
(-2.441333 -0.06568375 0.4956669)
(-2.441333 -0.0536126 0.4971174)
(-2.441333 -0.04158232 0.4982679)
(-2.441333 -0.02966073 0.4991195)
(-2.441333 -0.01800197 0.4996758)
(-2.441333 -0.006061687 0.4999633)
(-2.441333 -6.65068e-15 0.5)
(-2.441333 0.01212277 0.499853)
(-2.441333 0.02435703 0.4994064)
(-2.441333 0.03669317 0.4986518)
(-2.441333 0.04869756 0.4976229)
(-2.441333 0.06032237 0.4963479)
(-2.441333 0.07200833 0.4947876)
(-2.441333 0.08374592 0.4929367)
(-2.441333 0.09552524 0.4907901)
(-2.441333 0.107336 0.4883431)
(-2.441333 0.1191675 0.4855915)
(-2.441333 0.1310088 0.4825315)
(-2.441333 0.1428485 0.47916)
(-2.441333 0.154675 0.4754741)
(-2.441333 0.1664764 0.4714717)
(-2.441333 0.1782406 0.4671513)
(-2.441333 0.1899552 0.4625116)
(-2.441333 0.2016077 0.4575525)
(-2.441333 0.2131855 0.4522742)
(-2.441333 0.2246759 0.4466774)
(-2.441333 0.2358422 0.4408837)
(-2.441333 0.2468151 0.434836)
(-2.441333 0.2576694 0.4284932)
(-2.441333 0.2683938 0.4218587)
(-2.441333 0.2789764 0.4149363)
(-2.441333 0.289406 0.4077305)
(-2.441333 0.2996713 0.4002464)
(-2.441333 0.3097612 0.3924895)
(-2.441333 0.3196651 0.3844661)
(-2.441333 0.3293725 0.3761831)
(-2.441333 0.3388734 0.3676477)
(-2.441333 0.3481578 0.3588679)
(-2.441333 0.3572166 0.3498518)
(-2.441333 0.3660409 0.3406084)
(-2.441333 0.3746221 0.3311469)
(-2.441333 0.3829524 0.321477)
(-2.441333 0.3910244 0.3116087)
(-2.441333 0.398831 0.3015523)
(-2.441333 0.4063661 0.2913187)
(-2.441333 0.4136238 0.2809187)
(-2.441333 0.4205991 0.2703635)
(-2.441333 0.4272872 0.2596646)
(-2.441333 0.4336842 0.2488334)
(-2.441333 0.4397867 0.2378816)
(-2.441333 0.445592 0.2268209)
(-2.441333 0.451098 0.2156631)
(-2.441333 0.456303 0.2044201)
(-2.441333 0.4612061 0.1931034)
(-2.441333 0.465807 0.1817247)
(-2.441333 0.4701057 0.1702957)
(-2.441333 0.4741031 0.1588277)
(-2.441333 0.4778005 0.1473319)
(-2.441333 0.4811997 0.1358194)
(-2.441333 0.4843029 0.124301)
(-2.441333 0.487113 0.1127871)
(-2.441333 0.4896332 0.1012882)
(-2.441333 0.4918673 0.08981415)
(-2.441333 0.4939166 0.07775881)
(-2.441333 0.4956669 0.06568375)
(-2.441333 0.4971174 0.0536126)
(-2.441333 0.4982679 0.04158232)
(-2.441333 0.4991195 0.02966073)
(-2.441333 0.4996758 0.01800197)
(-2.441333 0.4999633 0.006061687)
(1.558667 0.499853 0.01212277)
(1.558667 0.5 0)
(1.558667 0.4994064 0.02435703)
(1.558667 0.4986518 0.03669317)
(1.558667 0.4976229 0.04869756)
(1.558667 0.4963479 0.06032237)
(1.558667 0.4947876 0.07200833)
(1.558667 0.4929367 0.08374592)
(1.558667 0.4907901 0.09552524)
(1.558667 0.4883431 0.107336)
(1.558667 0.4855915 0.1191675)
(1.558667 0.4825315 0.1310088)
(1.558667 0.47916 0.1428485)
(1.558667 0.4754741 0.154675)
(1.558667 0.4714717 0.1664764)
(1.558667 0.4671513 0.1782406)
(1.558667 0.4625116 0.1899552)
(1.558667 0.4575525 0.2016077)
(1.558667 0.4522742 0.2131855)
(1.558667 0.4466774 0.2246759)
(1.558667 0.4408837 0.2358422)
(1.558667 0.434836 0.2468151)
(1.558667 0.4284932 0.2576694)
(1.558667 0.4218587 0.2683938)
(1.558667 0.4149363 0.2789764)
(1.558667 0.4077305 0.289406)
(1.558667 0.4002464 0.2996713)
(1.558667 0.3924895 0.3097612)
(1.558667 0.3844661 0.3196651)
(1.558667 0.3761831 0.3293725)
(1.558667 0.3676477 0.3388734)
(1.558667 0.3588679 0.3481578)
(1.558667 0.3498518 0.3572166)
(1.558667 0.3406084 0.3660409)
(1.558667 0.3311469 0.3746221)
(1.558667 0.321477 0.3829524)
(1.558667 0.3116087 0.3910244)
(1.558667 0.3015523 0.398831)
(1.558667 0.2913187 0.4063661)
(1.558667 0.2809187 0.4136238)
(1.558667 0.2703635 0.4205991)
(1.558667 0.2596646 0.4272872)
(1.558667 0.2488334 0.4336842)
(1.558667 0.2378816 0.4397867)
(1.558667 0.2268209 0.445592)
(1.558667 0.2156631 0.451098)
(1.558667 0.2044201 0.456303)
(1.558667 0.1931034 0.4612061)
(1.558667 0.1817247 0.465807)
(1.558667 0.1702957 0.4701057)
(1.558667 0.1588277 0.4741031)
(1.558667 0.1473319 0.4778005)
(1.558667 0.1358194 0.4811997)
(1.558667 0.124301 0.4843029)
(1.558667 0.1127871 0.487113)
(1.558667 0.1012882 0.4896332)
(1.558667 0.08981415 0.4918673)
(1.558667 0.07775881 0.4939166)
(1.558667 0.06568375 0.4956669)
(1.558667 0.0536126 0.4971174)
(1.558667 0.04158232 0.4982679)
(1.558667 0.02966073 0.4991195)
(1.558667 0.01800197 0.4996758)
(1.558667 0.006061687 0.4999633)
(1.558667 -6.65068e-15 0.5)
(1.558667 -0.01212277 0.499853)
(1.558667 -0.02435703 0.4994064)
(1.558667 -0.03669317 0.4986518)
(1.558667 -0.04869756 0.4976229)
(1.558667 -0.06032237 0.4963479)
(1.558667 -0.07200833 0.4947876)
(1.558667 -0.08374592 0.4929367)
(1.558667 -0.09552524 0.4907901)
(1.558667 -0.107336 0.4883431)
(1.558667 -0.1191675 0.4855915)
(1.558667 -0.1310088 0.4825315)
(1.558667 -0.1428485 0.47916)
(1.558667 -0.154675 0.4754741)
(1.558667 -0.1664764 0.4714717)
(1.558667 -0.1782406 0.4671513)
(1.558667 -0.1899552 0.4625116)
(1.558667 -0.2016077 0.4575525)
(1.558667 -0.2131855 0.4522742)
(1.558667 -0.2246759 0.4466774)
(1.558667 -0.2358422 0.4408837)
(1.558667 -0.2468151 0.434836)
(1.558667 -0.2576694 0.4284932)
(1.558667 -0.2683938 0.4218587)
(1.558667 -0.2789764 0.4149363)
(1.558667 -0.289406 0.4077305)
(1.558667 -0.2996713 0.4002464)
(1.558667 -0.3097612 0.3924895)
(1.558667 -0.3196651 0.3844661)
(1.558667 -0.3293725 0.3761831)
(1.558667 -0.3388734 0.3676477)
(1.558667 -0.3481578 0.3588679)
(1.558667 -0.3572166 0.3498518)
(1.558667 -0.3660409 0.3406084)
(1.558667 -0.3746221 0.3311469)
(1.558667 -0.3829524 0.321477)
(1.558667 -0.3910244 0.3116087)
(1.558667 -0.398831 0.3015523)
(1.558667 -0.4063661 0.2913187)
(1.558667 -0.4136238 0.2809187)
(1.558667 -0.4205991 0.2703635)
(1.558667 -0.4272872 0.2596646)
(1.558667 -0.4336842 0.2488334)
(1.558667 -0.4397867 0.2378816)
(1.558667 -0.445592 0.2268209)
(1.558667 -0.451098 0.2156631)
(1.558667 -0.456303 0.2044201)
(1.558667 -0.4612061 0.1931034)
(1.558667 -0.465807 0.1817247)
(1.558667 -0.4701057 0.1702957)
(1.558667 -0.4741031 0.1588277)
(1.558667 -0.4778005 0.1473319)
(1.558667 -0.4811997 0.1358194)
(1.558667 -0.4843029 0.124301)
(1.558667 -0.487113 0.1127871)
(1.558667 -0.4896332 0.1012882)
(1.558667 -0.4918673 0.08981415)
(1.558667 -0.4939166 0.07775881)
(1.558667 -0.4956669 0.06568375)
(1.558667 -0.4971174 0.0536126)
(1.558667 -0.4982679 0.04158232)
(1.558667 -0.4991195 0.02966073)
(1.558667 -0.4996758 0.01800197)
(1.558667 -0.4999633 0.006061687)
(1.558667 -0.5 6.123234e-17)
(1.558667 -0.499853 -0.01212277)
(1.558667 -0.4994064 -0.02435703)
(1.558667 -0.4986518 -0.03669317)
(1.558667 -0.4976229 -0.04869756)
(1.558667 -0.4963479 -0.06032237)
(1.558667 -0.4947876 -0.07200833)
(1.558667 -0.4929367 -0.08374592)
(1.558667 -0.4907901 -0.09552524)
(1.558667 -0.4883431 -0.107336)
(1.558667 -0.4855915 -0.1191675)
(1.558667 -0.4825315 -0.1310088)
(1.558667 -0.47916 -0.1428485)
(1.558667 -0.4754741 -0.154675)
(1.558667 -0.4714717 -0.1664764)
(1.558667 -0.4671513 -0.1782406)
(1.558667 -0.4625116 -0.1899552)
(1.558667 -0.4575525 -0.2016077)
(1.558667 -0.4522742 -0.2131855)
(1.558667 -0.4466774 -0.2246759)
(1.558667 -0.4408837 -0.2358422)
(1.558667 -0.434836 -0.2468151)
(1.558667 -0.4284932 -0.2576694)
(1.558667 -0.4218587 -0.2683938)
(1.558667 -0.4149363 -0.2789764)
(1.558667 -0.4077305 -0.289406)
(1.558667 -0.4002464 -0.2996713)
(1.558667 -0.3924895 -0.3097612)
(1.558667 -0.3844661 -0.3196651)
(1.558667 -0.3761831 -0.3293725)
(1.558667 -0.3676477 -0.3388734)
(1.558667 -0.3588679 -0.3481578)
(1.558667 -0.3498518 -0.3572166)
(1.558667 -0.3406084 -0.3660409)
(1.558667 -0.3311469 -0.3746221)
(1.558667 -0.321477 -0.3829524)
(1.558667 -0.3116087 -0.3910244)
(1.558667 -0.3015523 -0.398831)
(1.558667 -0.2913187 -0.4063661)
(1.558667 -0.2809187 -0.4136238)
(1.558667 -0.2703635 -0.4205991)
(1.558667 -0.2596646 -0.4272872)
(1.558667 -0.2488334 -0.4336842)
(1.558667 -0.2378816 -0.4397867)
(1.558667 -0.2268209 -0.445592)
(1.558667 -0.2156631 -0.451098)
(1.558667 -0.2044201 -0.456303)
(1.558667 -0.1931034 -0.4612061)
(1.558667 -0.1817247 -0.465807)
(1.558667 -0.1702957 -0.4701057)
(1.558667 -0.1588277 -0.4741031)
(1.558667 -0.1473319 -0.4778005)
(1.558667 -0.1358194 -0.4811997)
(1.558667 -0.124301 -0.4843029)
(1.558667 -0.1127871 -0.487113)
(1.558667 -0.1012882 -0.4896332)
(1.558667 -0.08981415 -0.4918673)
(1.558667 -0.07775881 -0.4939166)
(1.558667 -0.06568375 -0.4956669)
(1.558667 -0.0536126 -0.4971174)
(1.558667 -0.04158232 -0.4982679)
(1.558667 -0.02966073 -0.4991195)
(1.558667 -0.01800197 -0.4996758)
(1.558667 -0.006061687 -0.4999633)
(1.558667 -6.82121e-15 -0.5)
(1.558667 0.01212277 -0.499853)
(1.558667 0.02435703 -0.4994064)
(1.558667 0.03669317 -0.4986518)
(1.558667 0.04869756 -0.4976229)
(1.558667 0.06032237 -0.4963479)
(1.558667 0.07200833 -0.4947876)
(1.558667 0.08374592 -0.4929367)
(1.558667 0.09552524 -0.4907901)
(1.558667 0.107336 -0.4883431)
(1.558667 0.1191675 -0.4855915)
(1.558667 0.1310088 -0.4825315)
(1.558667 0.1428485 -0.47916)
(1.558667 0.154675 -0.4754741)
(1.558667 0.1664764 -0.4714717)
(1.558667 0.1782406 -0.4671513)
(1.558667 0.1899552 -0.4625116)
(1.558667 0.2016077 -0.4575525)
(1.558667 0.2131855 -0.4522742)
(1.558667 0.2246759 -0.4466774)
(1.558667 0.2358422 -0.4408837)
(1.558667 0.2468151 -0.434836)
(1.558667 0.2576694 -0.4284932)
(1.558667 0.2683938 -0.4218587)
(1.558667 0.2789764 -0.4149363)
(1.558667 0.289406 -0.4077305)
(1.558667 0.2996713 -0.4002464)
(1.558667 0.3097612 -0.3924895)
(1.558667 0.3196651 -0.3844661)
(1.558667 0.3293725 -0.3761831)
(1.558667 0.3388734 -0.3676477)
(1.558667 0.3481578 -0.3588679)
(1.558667 0.3572166 -0.3498518)
(1.558667 0.3660409 -0.3406084)
(1.558667 0.3746221 -0.3311469)
(1.558667 0.3829524 -0.321477)
(1.558667 0.3910244 -0.3116087)
(1.558667 0.398831 -0.3015523)
(1.558667 0.4063661 -0.2913187)
(1.558667 0.4136238 -0.2809187)
(1.558667 0.4205991 -0.2703635)
(1.558667 0.4272872 -0.2596646)
(1.558667 0.4336842 -0.2488334)
(1.558667 0.4397867 -0.2378816)
(1.558667 0.445592 -0.2268209)
(1.558667 0.451098 -0.2156631)
(1.558667 0.456303 -0.2044201)
(1.558667 0.4612061 -0.1931034)
(1.558667 0.465807 -0.1817247)
(1.558667 0.4701057 -0.1702957)
(1.558667 0.4741031 -0.1588277)
(1.558667 0.4778005 -0.1473319)
(1.558667 0.4811997 -0.1358194)
(1.558667 0.4843029 -0.124301)
(1.558667 0.487113 -0.1127871)
(1.558667 0.4896332 -0.1012882)
(1.558667 0.4918673 -0.08981415)
(1.558667 0.4939166 -0.07775881)
(1.558667 0.4956669 -0.06568375)
(1.558667 0.4971174 -0.0536126)
(1.558667 0.4982679 -0.04158232)
(1.558667 0.4991195 -0.02966073)
(1.558667 0.4996758 -0.01800197)
(1.558667 0.4999633 -0.006061687)
)


// edges:

512
(
(0 1)
(2 0)
(3 2)
(4 3)
(5 4)
(6 5)
(7 6)
(8 7)
(9 8)
(10 9)
(11 10)
(12 11)
(13 12)
(14 13)
(15 14)
(16 15)
(17 16)
(18 17)
(19 18)
(20 19)
(21 20)
(22 21)
(23 22)
(24 23)
(25 24)
(26 25)
(27 26)
(28 27)
(29 28)
(30 29)
(31 30)
(32 31)
(33 32)
(34 33)
(35 34)
(36 35)
(37 36)
(38 37)
(39 38)
(40 39)
(41 40)
(42 41)
(43 42)
(44 43)
(45 44)
(46 45)
(47 46)
(48 47)
(49 48)
(50 49)
(51 50)
(52 51)
(53 52)
(54 53)
(55 54)
(56 55)
(57 56)
(58 57)
(59 58)
(60 59)
(61 60)
(62 61)
(63 62)
(64 63)
(65 64)
(66 65)
(67 66)
(68 67)
(69 68)
(70 69)
(71 70)
(72 71)
(73 72)
(74 73)
(75 74)
(76 75)
(77 76)
(78 77)
(79 78)
(80 79)
(81 80)
(82 81)
(83 82)
(84 83)
(85 84)
(86 85)
(87 86)
(88 87)
(89 88)
(90 89)
(91 90)
(92 91)
(93 92)
(94 93)
(95 94)
(96 95)
(97 96)
(98 97)
(99 98)
(100 99)
(101 100)
(102 101)
(103 102)
(104 103)
(105 104)
(106 105)
(107 106)
(108 107)
(109 108)
(110 109)
(111 110)
(112 111)
(113 112)
(114 113)
(115 114)
(116 115)
(117 116)
(118 117)
(119 118)
(120 119)
(121 120)
(122 121)
(123 122)
(124 123)
(125 124)
(126 125)
(127 126)
(128 127)
(129 128)
(130 129)
(131 130)
(132 131)
(133 132)
(134 133)
(135 134)
(136 135)
(137 136)
(138 137)
(139 138)
(140 139)
(141 140)
(142 141)
(143 142)
(144 143)
(145 144)
(146 145)
(147 146)
(148 147)
(149 148)
(150 149)
(151 150)
(152 151)
(153 152)
(154 153)
(155 154)
(156 155)
(157 156)
(158 157)
(159 158)
(160 159)
(161 160)
(162 161)
(163 162)
(164 163)
(165 164)
(166 165)
(167 166)
(168 167)
(169 168)
(170 169)
(171 170)
(172 171)
(173 172)
(174 173)
(175 174)
(176 175)
(177 176)
(178 177)
(179 178)
(180 179)
(181 180)
(182 181)
(183 182)
(184 183)
(185 184)
(186 185)
(187 186)
(188 187)
(189 188)
(190 189)
(191 190)
(192 191)
(193 192)
(194 193)
(195 194)
(196 195)
(197 196)
(198 197)
(199 198)
(200 199)
(201 200)
(202 201)
(203 202)
(204 203)
(205 204)
(206 205)
(207 206)
(208 207)
(209 208)
(210 209)
(211 210)
(212 211)
(213 212)
(214 213)
(215 214)
(216 215)
(217 216)
(218 217)
(219 218)
(220 219)
(221 220)
(222 221)
(223 222)
(224 223)
(225 224)
(226 225)
(227 226)
(228 227)
(229 228)
(230 229)
(231 230)
(232 231)
(233 232)
(234 233)
(235 234)
(236 235)
(237 236)
(238 237)
(239 238)
(240 239)
(241 240)
(242 241)
(243 242)
(244 243)
(245 244)
(246 245)
(247 246)
(248 247)
(249 248)
(250 249)
(251 250)
(252 251)
(253 252)
(254 253)
(255 254)
(1 255)
(256 257)
(258 256)
(259 258)
(260 259)
(261 260)
(262 261)
(263 262)
(264 263)
(265 264)
(266 265)
(267 266)
(268 267)
(269 268)
(270 269)
(271 270)
(272 271)
(273 272)
(274 273)
(275 274)
(276 275)
(277 276)
(278 277)
(279 278)
(280 279)
(281 280)
(282 281)
(283 282)
(284 283)
(285 284)
(286 285)
(287 286)
(288 287)
(289 288)
(290 289)
(291 290)
(292 291)
(293 292)
(294 293)
(295 294)
(296 295)
(297 296)
(298 297)
(299 298)
(300 299)
(301 300)
(302 301)
(303 302)
(304 303)
(305 304)
(306 305)
(307 306)
(308 307)
(309 308)
(310 309)
(311 310)
(312 311)
(313 312)
(314 313)
(315 314)
(316 315)
(317 316)
(318 317)
(319 318)
(320 319)
(321 320)
(322 321)
(323 322)
(324 323)
(325 324)
(326 325)
(327 326)
(328 327)
(329 328)
(330 329)
(331 330)
(332 331)
(333 332)
(334 333)
(335 334)
(336 335)
(337 336)
(338 337)
(339 338)
(340 339)
(341 340)
(342 341)
(343 342)
(344 343)
(345 344)
(346 345)
(347 346)
(348 347)
(349 348)
(350 349)
(351 350)
(352 351)
(353 352)
(354 353)
(355 354)
(356 355)
(357 356)
(358 357)
(359 358)
(360 359)
(361 360)
(362 361)
(363 362)
(364 363)
(365 364)
(366 365)
(367 366)
(368 367)
(369 368)
(370 369)
(371 370)
(372 371)
(373 372)
(374 373)
(375 374)
(376 375)
(377 376)
(378 377)
(379 378)
(380 379)
(381 380)
(382 381)
(383 382)
(384 383)
(385 384)
(386 385)
(387 386)
(388 387)
(389 388)
(390 389)
(391 390)
(392 391)
(393 392)
(394 393)
(395 394)
(396 395)
(397 396)
(398 397)
(399 398)
(400 399)
(401 400)
(402 401)
(403 402)
(404 403)
(405 404)
(406 405)
(407 406)
(408 407)
(409 408)
(410 409)
(411 410)
(412 411)
(413 412)
(414 413)
(415 414)
(416 415)
(417 416)
(418 417)
(419 418)
(420 419)
(421 420)
(422 421)
(423 422)
(424 423)
(425 424)
(426 425)
(427 426)
(428 427)
(429 428)
(430 429)
(431 430)
(432 431)
(433 432)
(434 433)
(435 434)
(436 435)
(437 436)
(438 437)
(439 438)
(440 439)
(441 440)
(442 441)
(443 442)
(444 443)
(445 444)
(446 445)
(447 446)
(448 447)
(449 448)
(450 449)
(451 450)
(452 451)
(453 452)
(454 453)
(455 454)
(456 455)
(457 456)
(458 457)
(459 458)
(460 459)
(461 460)
(462 461)
(463 462)
(464 463)
(465 464)
(466 465)
(467 466)
(468 467)
(469 468)
(470 469)
(471 470)
(472 471)
(473 472)
(474 473)
(475 474)
(476 475)
(477 476)
(478 477)
(479 478)
(480 479)
(481 480)
(482 481)
(483 482)
(484 483)
(485 484)
(486 485)
(487 486)
(488 487)
(489 488)
(490 489)
(491 490)
(492 491)
(493 492)
(494 493)
(495 494)
(496 495)
(497 496)
(498 497)
(499 498)
(500 499)
(501 500)
(502 501)
(503 502)
(504 503)
(505 504)
(506 505)
(507 506)
(508 507)
(509 508)
(510 509)
(511 510)
(257 511)
)

// * * * * * * * * * * * * * * * * * * * * * * * * * * * * * * * * * * * * * //


// ************************************************************************* //
