/*--------------------------------*- C++ -*----------------------------------*\
| =========                 |                                                 |
| \\      /  F ield         | OpenFOAM: The Open Source CFD Toolbox           |
|  \\    /   O peration     | Version:  v1912                                 |
|   \\  /    A nd           | Website:  www.openfoam.com                      |
|    \\/     M anipulation  |                                                 |
\*---------------------------------------------------------------------------*/
FoamFile
{
    version     2.0;
    format      ascii;
    class       featureEdgeMesh;
    location    "constant/triSurface";
    object      outlet.eMesh;
}
// * * * * * * * * * * * * * * * * * * * * * * * * * * * * * * * * * * * * * //


// points:

256
(
(-2.441333 -0.4497935 0.2183708)
(-2.441333 -0.444142 0.2296473)
(-2.441333 -0.438184 0.2408212)
(-2.441333 -0.4319218 0.2518801)
(-2.441333 -0.4253585 0.262812)
(-2.441333 -0.469308 0.172482)
(-2.441333 -0.4648941 0.1840474)
(-2.441333 -0.4601704 0.1955587)
(-2.441333 -0.4551367 0.2070038)
(-2.441333 -0.4184977 0.2736049)
(-2.441333 -0.3961775 0.3050302)
(-2.441333 -0.3881766 0.3151491)
(-2.441333 -0.3799061 0.3250713)
(-2.441333 -0.3713734 0.3347862)
(-2.441333 -0.3625863 0.3442836)
(-2.441333 -0.411344 0.2842467)
(-2.441333 -0.403902 0.2947256)
(-2.441333 -0.3535534 0.3535534)
(-2.441333 -0.4968138 0.05635626)
(-2.441333 -0.4953753 0.0678477)
(-2.441333 -0.4979775 0.04492722)
(-2.441333 -0.4936566 0.07939256)
(-2.441333 -0.4916527 0.09098153)
(-2.441333 -0.4998768 -0.01109797)
(-2.441333 -0.5 6.123234e-17)
(-2.441333 -0.4995029 0.02229012)
(-2.441333 -0.4988718 0.03356912)
(-2.441333 -0.4998768 0.01109797)
(-2.441333 -0.489359 0.1026049)
(-2.441333 -0.4806995 0.1375791)
(-2.441333 -0.4772091 0.1492362)
(-2.441333 -0.4734125 0.1608744)
(-2.441333 -0.4838859 0.1259142)
(-2.441333 -0.4867713 0.1142526)
(-2.441333 -0.1375791 0.4806995)
(-2.441333 -0.1259142 0.4838859)
(-2.441333 -0.1142526 0.4867713)
(-2.441333 -0.1026049 0.489359)
(-2.441333 -0.09098153 0.4916527)
(-2.441333 -0.1955587 0.4601704)
(-2.441333 -0.1840474 0.4648941)
(-2.441333 -0.172482 0.469308)
(-2.441333 -0.1608744 0.4734125)
(-2.441333 -0.1492362 0.4772091)
(-2.441333 -0.07939256 0.4936566)
(-2.441333 -0.04492722 0.4979775)
(-2.441333 -0.03356912 0.4988718)
(-2.441333 -0.02229012 0.4995029)
(-2.441333 -0.01109797 0.4998768)
(-2.441333 -6.65068e-15 0.5)
(-2.441333 -0.0678477 0.4953753)
(-2.441333 -0.05635626 0.4968138)
(-2.441333 0.01109797 0.4998768)
(-2.441333 -0.3151491 0.3881766)
(-2.441333 -0.3050302 0.3961775)
(-2.441333 -0.2947256 0.403902)
(-2.441333 -0.2842467 0.411344)
(-2.441333 -0.3442836 0.3625863)
(-2.441333 -0.3347862 0.3713734)
(-2.441333 -0.3250713 0.3799061)
(-2.441333 -0.2736049 0.4184977)
(-2.441333 -0.2296473 0.444142)
(-2.441333 -0.2183708 0.4497935)
(-2.441333 -0.2070038 0.4551367)
(-2.441333 -0.262812 0.4253585)
(-2.441333 -0.2518801 0.4319218)
(-2.441333 -0.2408212 0.438184)
(-2.441333 -0.4979775 -0.04492722)
(-2.441333 -0.4988718 -0.03356912)
(-2.441333 -0.4968138 -0.05635626)
(-2.441333 -0.4953753 -0.0678477)
(-2.441333 -0.4936566 -0.07939256)
(-2.441333 -0.4867713 -0.1142526)
(-2.441333 -0.489359 -0.1026049)
(-2.441333 -0.4916527 -0.09098153)
(-2.441333 -0.4838859 -0.1259142)
(-2.441333 -0.4806995 -0.1375791)
(-2.441333 -0.4995029 -0.02229012)
(-2.441333 -0.4772091 -0.1492362)
(-2.441333 -0.4648941 -0.1840474)
(-2.441333 -0.469308 -0.172482)
(-2.441333 -0.4734125 -0.1608744)
(-2.441333 -0.4601704 -0.1955587)
(-2.441333 -0.4551367 -0.2070038)
(-2.441333 -0.444142 -0.2296473)
(-2.441333 -0.4497935 -0.2183708)
(-2.441333 -0.438184 -0.2408212)
(-2.441333 -0.4253585 -0.262812)
(-2.441333 -0.4319218 -0.2518801)
(-2.441333 -0.411344 -0.2842467)
(-2.441333 -0.4184977 -0.2736049)
(-2.441333 -0.3961775 -0.3050302)
(-2.441333 -0.403902 -0.2947256)
(-2.441333 -0.3881766 -0.3151491)
(-2.441333 -0.3799061 -0.3250713)
(-2.441333 -0.3713734 -0.3347862)
(-2.441333 -0.3625863 -0.3442836)
(-2.441333 -0.3442836 -0.3625863)
(-2.441333 -0.3535534 -0.3535534)
(-2.441333 -0.3347862 -0.3713734)
(-2.441333 -0.3151491 -0.3881766)
(-2.441333 -0.3250713 -0.3799061)
(-2.441333 -0.2947256 -0.403902)
(-2.441333 -0.3050302 -0.3961775)
(-2.441333 -0.2842467 -0.411344)
(-2.441333 -0.2736049 -0.4184977)
(-2.441333 -0.262812 -0.4253585)
(-2.441333 -0.2408212 -0.438184)
(-2.441333 -0.2518801 -0.4319218)
(-2.441333 -0.2183708 -0.4497935)
(-2.441333 -0.2296473 -0.444142)
(-2.441333 -0.2070038 -0.4551367)
(-2.441333 -0.1840474 -0.4648941)
(-2.441333 -0.1955587 -0.4601704)
(-2.441333 -0.172482 -0.469308)
(-2.441333 -0.1608744 -0.4734125)
(-2.441333 -0.1259142 -0.4838859)
(-2.441333 -0.1375791 -0.4806995)
(-2.441333 -0.1492362 -0.4772091)
(-2.441333 -0.1026049 -0.489359)
(-2.441333 -0.1142526 -0.4867713)
(-2.441333 -0.09098153 -0.4916527)
(-2.441333 -0.0678477 -0.4953753)
(-2.441333 -0.07939256 -0.4936566)
(-2.441333 -0.05635626 -0.4968138)
(-2.441333 -0.04492722 -0.4979775)
(-2.441333 -0.03356912 -0.4988718)
(-2.441333 -0.02229012 -0.4995029)
(-2.441333 -0.01109797 -0.4998768)
(-2.441333 -6.82121e-15 -0.5)
(-2.441333 0.01109797 -0.4998768)
(-2.441333 0.02229012 0.4995029)
(-2.441333 0.03356912 0.4988718)
(-2.441333 0.04492722 0.4979775)
(-2.441333 0.05635626 0.4968138)
(-2.441333 0.0678477 0.4953753)
(-2.441333 0.07939256 0.4936566)
(-2.441333 0.09098153 0.4916527)
(-2.441333 0.1026049 0.489359)
(-2.441333 0.1259142 0.4838859)
(-2.441333 0.1375791 0.4806995)
(-2.441333 0.1142526 0.4867713)
(-2.441333 0.1492362 0.4772091)
(-2.441333 0.1608744 0.4734125)
(-2.441333 0.172482 0.469308)
(-2.441333 0.1840474 0.4648941)
(-2.441333 0.1955587 0.4601704)
(-2.441333 0.2070038 0.4551367)
(-2.441333 0.2183708 0.4497935)
(-2.441333 0.2296473 0.444142)
(-2.441333 0.2408212 0.438184)
(-2.441333 0.2518801 0.4319218)
(-2.441333 0.262812 0.4253585)
(-2.441333 0.2736049 0.4184977)
(-2.441333 0.2842467 0.411344)
(-2.441333 0.2947256 0.403902)
(-2.441333 0.3050302 0.3961775)
(-2.441333 0.3151491 0.3881766)
(-2.441333 0.3250713 0.3799061)
(-2.441333 0.3347862 0.3713734)
(-2.441333 0.3442836 0.3625863)
(-2.441333 0.3625863 0.3442836)
(-2.441333 0.3713734 0.3347862)
(-2.441333 0.3535534 0.3535534)
(-2.441333 0.3799061 0.3250713)
(-2.441333 0.3881766 0.3151491)
(-2.441333 0.3961775 0.3050302)
(-2.441333 0.403902 0.2947256)
(-2.441333 0.411344 0.2842467)
(-2.441333 0.4184977 0.2736049)
(-2.441333 0.4253585 0.262812)
(-2.441333 0.4319218 0.2518801)
(-2.441333 0.438184 0.2408212)
(-2.441333 0.444142 0.2296473)
(-2.441333 0.4497935 0.2183708)
(-2.441333 0.4551367 0.2070038)
(-2.441333 0.4601704 0.1955587)
(-2.441333 0.469308 0.172482)
(-2.441333 0.4734125 0.1608744)
(-2.441333 0.4648941 0.1840474)
(-2.441333 0.4772091 0.1492362)
(-2.441333 0.4806995 0.1375791)
(-2.441333 0.4838859 0.1259142)
(-2.441333 0.4867713 0.1142526)
(-2.441333 0.489359 0.1026049)
(-2.441333 0.4916527 0.09098153)
(-2.441333 0.4936566 0.07939256)
(-2.441333 0.4953753 0.0678477)
(-2.441333 0.4968138 0.05635626)
(-2.441333 0.4979775 0.04492722)
(-2.441333 0.4988718 0.03356912)
(-2.441333 0.4995029 0.02229012)
(-2.441333 0.4998768 0.01109797)
(-2.441333 0.5 -1.224647e-16)
(-2.441333 0.2408212 -0.438184)
(-2.441333 0.2296473 -0.444142)
(-2.441333 0.2518801 -0.4319218)
(-2.441333 0.2183708 -0.4497935)
(-2.441333 0.262812 -0.4253585)
(-2.441333 0.3347862 -0.3713734)
(-2.441333 0.3250713 -0.3799061)
(-2.441333 0.3442836 -0.3625863)
(-2.441333 0.3151491 -0.3881766)
(-2.441333 0.2842467 -0.411344)
(-2.441333 0.2736049 -0.4184977)
(-2.441333 0.2947256 -0.403902)
(-2.441333 0.3050302 -0.3961775)
(-2.441333 0.09098153 -0.4916527)
(-2.441333 0.07939256 -0.4936566)
(-2.441333 0.1026049 -0.489359)
(-2.441333 0.0678477 -0.4953753)
(-2.441333 0.02229012 -0.4995029)
(-2.441333 0.03356912 -0.4988718)
(-2.441333 0.04492722 -0.4979775)
(-2.441333 0.05635626 -0.4968138)
(-2.441333 0.172482 -0.469308)
(-2.441333 0.1608744 -0.4734125)
(-2.441333 0.1840474 -0.4648941)
(-2.441333 0.1955587 -0.4601704)
(-2.441333 0.1492362 -0.4772091)
(-2.441333 0.1142526 -0.4867713)
(-2.441333 0.1259142 -0.4838859)
(-2.441333 0.1375791 -0.4806995)
(-2.441333 0.2070038 -0.4551367)
(-2.441333 0.4867713 -0.1142526)
(-2.441333 0.4838859 -0.1259142)
(-2.441333 0.4806995 -0.1375791)
(-2.441333 0.469308 -0.172482)
(-2.441333 0.4648941 -0.1840474)
(-2.441333 0.4734125 -0.1608744)
(-2.441333 0.4772091 -0.1492362)
(-2.441333 0.4988718 -0.03356912)
(-2.441333 0.4979775 -0.04492722)
(-2.441333 0.4998768 -0.01109797)
(-2.441333 0.4995029 -0.02229012)
(-2.441333 0.4968138 -0.05635626)
(-2.441333 0.4916527 -0.09098153)
(-2.441333 0.489359 -0.1026049)
(-2.441333 0.4953753 -0.0678477)
(-2.441333 0.4936566 -0.07939256)
(-2.441333 0.3961775 -0.3050302)
(-2.441333 0.3881766 -0.3151491)
(-2.441333 0.403902 -0.2947256)
(-2.441333 0.411344 -0.2842467)
(-2.441333 0.3535534 -0.3535534)
(-2.441333 0.3625863 -0.3442836)
(-2.441333 0.3713734 -0.3347862)
(-2.441333 0.3799061 -0.3250713)
(-2.441333 0.4551367 -0.2070038)
(-2.441333 0.4497935 -0.2183708)
(-2.441333 0.4601704 -0.1955587)
(-2.441333 0.444142 -0.2296473)
(-2.441333 0.4253585 -0.262812)
(-2.441333 0.4184977 -0.2736049)
(-2.441333 0.4319218 -0.2518801)
(-2.441333 0.438184 -0.2408212)
)


// edges:

256
(
(0 1)
(2 3)
(1 2)
(3 4)
(5 6)
(6 7)
(8 0)
(7 8)
(4 9)
(10 11)
(12 13)
(11 12)
(13 14)
(9 15)
(16 10)
(15 16)
(14 17)
(18 19)
(20 18)
(19 21)
(21 22)
(23 24)
(25 26)
(26 20)
(27 25)
(24 27)
(22 28)
(29 30)
(31 5)
(30 31)
(32 29)
(33 32)
(28 33)
(34 35)
(36 37)
(35 36)
(37 38)
(39 40)
(40 41)
(42 43)
(43 34)
(41 42)
(38 44)
(45 46)
(47 48)
(46 47)
(48 49)
(44 50)
(50 51)
(51 45)
(49 52)
(53 54)
(54 55)
(55 56)
(17 57)
(57 58)
(59 53)
(58 59)
(56 60)
(61 62)
(62 63)
(63 39)
(64 65)
(60 64)
(65 66)
(66 61)
(67 68)
(69 67)
(70 69)
(71 70)
(72 73)
(74 71)
(75 72)
(76 75)
(73 74)
(68 77)
(78 76)
(79 80)
(80 81)
(81 78)
(82 79)
(77 23)
(83 82)
(84 85)
(85 83)
(86 84)
(87 88)
(88 86)
(89 90)
(90 87)
(91 92)
(93 91)
(94 93)
(92 89)
(95 94)
(96 95)
(97 98)
(98 96)
(99 97)
(100 101)
(101 99)
(102 103)
(103 100)
(104 102)
(105 104)
(106 105)
(107 108)
(108 106)
(109 110)
(110 107)
(111 109)
(112 113)
(114 112)
(115 114)
(113 111)
(116 117)
(117 118)
(119 120)
(120 116)
(121 119)
(118 115)
(122 123)
(123 121)
(124 122)
(125 124)
(126 125)
(127 126)
(128 127)
(129 128)
(130 129)
(52 131)
(132 133)
(131 132)
(133 134)
(134 135)
(135 136)
(136 137)
(137 138)
(139 140)
(141 139)
(140 142)
(143 144)
(144 145)
(146 147)
(145 146)
(142 143)
(138 141)
(147 148)
(148 149)
(149 150)
(150 151)
(151 152)
(153 154)
(155 156)
(154 155)
(157 158)
(158 159)
(159 160)
(156 157)
(152 153)
(161 162)
(163 161)
(162 164)
(164 165)
(165 166)
(167 168)
(166 167)
(160 163)
(169 170)
(168 169)
(170 171)
(171 172)
(172 173)
(173 174)
(174 175)
(175 176)
(177 178)
(179 177)
(176 179)
(178 180)
(180 181)
(182 183)
(183 184)
(185 186)
(184 185)
(186 187)
(188 189)
(189 190)
(191 192)
(190 191)
(187 188)
(181 182)
(192 193)
(194 195)
(196 194)
(195 197)
(198 196)
(199 200)
(201 199)
(200 202)
(203 204)
(204 198)
(205 203)
(206 205)
(202 206)
(207 208)
(209 207)
(208 210)
(211 130)
(212 211)
(213 212)
(214 213)
(210 214)
(215 216)
(217 215)
(218 217)
(216 219)
(220 209)
(221 220)
(222 221)
(219 222)
(223 218)
(197 223)
(224 225)
(225 226)
(227 228)
(229 227)
(230 229)
(226 230)
(231 232)
(233 234)
(234 231)
(232 235)
(236 237)
(237 224)
(238 239)
(239 236)
(235 238)
(240 241)
(242 240)
(243 242)
(244 201)
(245 244)
(246 245)
(247 246)
(241 247)
(248 249)
(250 248)
(228 250)
(249 251)
(252 253)
(254 252)
(253 243)
(255 254)
(251 255)
(193 233)
)

// * * * * * * * * * * * * * * * * * * * * * * * * * * * * * * * * * * * * * //


// ************************************************************************* //
