/*--------------------------------*- C++ -*----------------------------------*\
| =========                 |                                                 |
| \\      /  F ield         | OpenFOAM: The Open Source CFD Toolbox           |
|  \\    /   O peration     | Version:  v1912                                 |
|   \\  /    A nd           | Website:  www.openfoam.com                      |
|    \\/     M anipulation  |                                                 |
\*---------------------------------------------------------------------------*/
FoamFile
{
    version     2.0;
    format      ascii;
    class       featureEdgeMesh;
    location    "constant/triSurface";
    object      propeller.eMesh;
}
// * * * * * * * * * * * * * * * * * * * * * * * * * * * * * * * * * * * * * //


// points:

5464
(
(0.044004 0.0681975 -0.0418223)
(0.0574175 0.0684175 -0.0414614)
(0.0440242 0.0682111 -0.0418001)
(0.044014 0.0682079 -0.0418053)
(0.0435274 0.0672398 -0.0433452)
(0.0435257 0.0672407 -0.0433438)
(0.0435269 0.0672292 -0.0433617)
(0.0573325 0.0682096 -0.0418025)
(0.0568457 0.0672332 -0.0433554)
(0.0440027 0.0681981 -0.0418213)
(0.043509 0.0672131 -0.0433867)
(0.0302438 0.00603586 -0.079772)
(0.549415 -0.0247267 0.0013409)
(0.481998 0.036754 -0.0410518)
(0.430671 -0.0999906 0)
(0.0266667 0.0618408 0.0507515)
(0.0266667 0.0565685 0.0565685)
(0.0266667 0.00784137 0.0796148)
(0.0266667 0 0.08)
(0.0266667 0.0232228 0.0765552)
(0.0266667 0.0156072 0.0784628)
(0.0266667 0.0377117 0.0705537)
(0.0266667 0.0306147 0.0739104)
(0.0266667 0.0507515 0.0618408)
(0.0266667 0.0444456 0.0665176)
(0.0266667 0.0665176 0.0444456)
(0.0266667 0.0705537 0.0377117)
(0.0266667 0.0739104 0.0306147)
(0.0266667 0.0765552 0.0232228)
(0.0266667 0.0784628 0.0156072)
(0.0266667 0.0796148 0.00784137)
(0.0266667 0.08 0)
(0.0266667 0.0796148 -0.00784137)
(0.0266667 0.0784628 -0.0156072)
(0.0266667 0.0765552 -0.0232228)
(0.0266667 0.0739104 -0.0306147)
(0.0266667 0.0705537 -0.0377117)
(0.0266667 0.0665176 -0.0444456)
(0.0539891 0.06821 -0.0418019)
(0.0556608 0.0682098 -0.0418022)
(0.0523174 0.0682102 -0.0418016)
(0.0542931 0.067232 -0.0433573)
(0.0530168 0.0672314 -0.0433583)
(0.0266667 -0.0232228 -0.0765552)
(0.0266667 -0.0156072 -0.0784628)
(0.0266667 -0.0507515 -0.0618408)
(0.0266667 -0.0444456 -0.0665176)
(0.0266667 -0.0618408 -0.0507515)
(0.0266667 -0.0565685 -0.0565685)
(0.0266667 -0.0377117 -0.0705537)
(0.0266667 -0.0306147 -0.0739104)
(0.0266667 -0.0765552 -0.0232228)
(0.0266667 -0.0739104 -0.0306147)
(0.0266667 -0.0796148 -0.00784137)
(0.0266667 -0.0784628 -0.0156072)
(0.0266667 -0.0765552 0.0232228)
(0.0266667 -0.0784628 0.0156072)
(0.0266667 -0.0796148 0.00784137)
(0.0266667 -0.08 0)
(0.0266667 -0.0705537 0.0377117)
(0.0266667 -0.0739104 0.0306147)
(0.0266667 -0.0705537 -0.0377117)
(0.0266667 -0.0665176 -0.0444456)
(0.0481381 0.0682106 -0.0418008)
(0.048974 0.0682105 -0.041801)
(0.0498098 0.0682104 -0.0418011)
(0.0506457 0.0682103 -0.0418013)
(0.0514815 0.0682103 -0.0418014)
(0.0440056 0.0681989 -0.0418199)
(0.0517405 0.0672308 -0.0433592)
(0.0504642 0.0672302 -0.0433601)
(0.0491879 0.0672296 -0.0433611)
(0.0479116 0.067229 -0.043362)
(0.0472734 0.0672287 -0.0433625)
(0.0466353 0.0672284 -0.043363)
(0.045359 0.0672278 -0.0433639)
(0.0450399 0.0672276 -0.0433641)
(0.0447208 0.0672275 -0.0433644)
(0.0444017 0.0672273 -0.0433646)
(0.0435442 0.0672269 -0.0433652)
(0.0435342 0.0672269 -0.0433652)
(0.0435642 0.0672269 -0.0433652)
(0.0266667 0.0618408 -0.0507515)
(0.0266667 0.0565685 -0.0565685)
(0.0266667 0.0507515 -0.0618408)
(0.0266667 0.0444456 -0.0665176)
(0.0266667 0.0306147 -0.0739104)
(0.0266667 0.0377117 -0.0705537)
(0.0266667 0.0232228 -0.0765552)
(0.0266667 0.0156072 -0.0784628)
(0.0266667 -0.0618408 0.0507515)
(0.0266667 -0.0665176 0.0444456)
(0.0266667 -0.0232228 0.0765552)
(0.0266667 -0.0306147 0.0739104)
(0.0266667 0.00784137 -0.0796148)
(0.0266667 0 -0.08)
(0.0266667 -0.00784137 -0.0796148)
(0.0266667 -0.0565685 0.0565685)
(0.0266667 -0.0444456 0.0665176)
(0.0266667 -0.0507515 0.0618408)
(0.0266667 -0.0377117 0.0705537)
(0.0266667 -0.0156072 0.0784628)
(0.0266667 -0.00784137 0.0796148)
(1.42802e-11 -0.0302968 0.0438925)
(1.42802e-11 -0.0247852 0.0472243)
(1.42802e-11 -0.0353665 0.0399206)
(1.42802e-11 -0.0127635 0.0517836)
(1.42802e-11 -0.00642862 0.0529445)
(1.42802e-11 -0.0189123 0.0498675)
(1.42802e-11 0 0.0533333)
(1.42802e-11 -0.0472243 0.0247852)
(1.42802e-11 -0.0438925 0.0302968)
(1.42802e-11 -0.0517836 0.0127635)
(1.42802e-11 -0.0498675 0.0189123)
(1.42802e-11 -0.0529445 0.00642862)
(1.42802e-11 -0.0399206 0.0353665)
(1.42802e-11 -0.0533333 -9.06262e-17)
(1.42802e-11 0.00642862 0.0529445)
(1.42802e-11 0.0127635 0.0517836)
(1.42802e-11 0.0189123 0.0498675)
(1.42802e-11 0.0247852 0.0472243)
(1.42802e-11 0.0302968 0.0438925)
(1.42802e-11 0.0353665 0.0399206)
(1.42802e-11 0.0399206 0.0353665)
(1.42802e-11 0.0438925 0.0302968)
(1.42802e-11 0.0472243 0.0247852)
(1.42802e-11 0.0498675 0.0189123)
(1.42802e-11 0.0517836 0.0127635)
(1.42802e-11 0.0529445 0.00642862)
(1.42802e-11 0.0533333 1.20842e-16)
(1.42802e-11 -0.0517836 -0.0127635)
(1.42802e-11 -0.0529445 -0.00642862)
(1.42802e-11 -0.0498675 -0.0189123)
(1.42802e-11 -0.0472243 -0.0247852)
(1.42802e-11 -0.0438925 -0.0302968)
(1.42802e-11 -0.0399206 -0.0353665)
(1.42802e-11 -0.0247852 -0.0472243)
(1.42802e-11 -0.0302968 -0.0438925)
(1.42802e-11 -0.0353665 -0.0399206)
(1.42802e-11 -0.00642862 -0.0529445)
(1.42802e-11 -0.0127635 -0.0517836)
(1.42802e-11 -0.0189123 -0.0498675)
(1.42802e-11 2.42532e-16 -0.0533333)
(1.42802e-11 0.0438925 -0.0302968)
(1.42802e-11 0.0399206 -0.0353665)
(1.42802e-11 0.0529445 -0.00642862)
(1.42802e-11 0.0517836 -0.0127635)
(1.42802e-11 0.0498675 -0.0189123)
(1.42802e-11 0.0472243 -0.0247852)
(1.42802e-11 0.0247852 -0.0472243)
(1.42802e-11 0.0189123 -0.0498675)
(1.42802e-11 0.0127635 -0.0517836)
(1.42802e-11 0.00642862 -0.0529445)
(1.42802e-11 0.0353665 -0.0399206)
(1.42802e-11 0.0302968 -0.0438925)
(0.56 -0.0141421 -0.0141421)
(0.56 -0.0111114 -0.0166294)
(0.56 -0.00765367 -0.0184776)
(0.56 -0.00390181 -0.0196157)
(0.56 -0.0166294 -0.0111114)
(0.56 -0.02 0)
(0.56 -0.0196157 -0.00390181)
(0.56 -0.0184776 -0.00765367)
(0.56 -0.0196157 0.00390181)
(0.56 0.00390181 -0.0196157)
(0.56 0.00765367 -0.0184776)
(0.56 0.0111114 -0.0166294)
(0.56 0.0141421 -0.0141421)
(0.56 -6.66963e-15 -0.02)
(0.56 0.0166294 -0.0111114)
(0.56 0.0184776 -0.00765367)
(0.56 0.0196157 -0.00390181)
(0.56 -0.0166294 0.0111114)
(0.56 -0.0184776 0.00765367)
(0.56 -0.0141421 0.0141421)
(0.56 -0.00765367 0.0184776)
(0.56 -0.0111114 0.0166294)
(0.56 -6.66963e-15 0.02)
(0.56 -0.00390181 0.0196157)
(0.56 0.00390181 0.0196157)
(0.56 0.02 0)
(0.56 0.0196157 0.00390181)
(0.56 0.0184776 0.00765367)
(0.56 0.0166294 0.0111114)
(0.56 0.0111114 0.0166294)
(0.56 0.00765367 0.0184776)
(0.56 0.0141421 0.0141421)
(0.431739 -0.0994562 -0.00623201)
(0.431474 -0.0996219 -0.00467921)
(0.431209 -0.0997634 -0.0031227)
(0.430944 -0.0998809 -0.00156285)
(0.430811 -0.0999306 -0.000781778)
(0.432797 -0.0985495 -0.0124159)
(0.432533 -0.0988125 -0.0108773)
(0.432269 -0.0990513 -0.00933356)
(0.432004 -0.0992659 -0.007785)
(0.433855 -0.0972536 -0.0185321)
(0.433591 -0.0976134 -0.0170128)
(0.433327 -0.0979494 -0.0154867)
(0.433062 -0.0982614 -0.0139543)
(0.434912 -0.0955719 -0.0245597)
(0.434648 -0.0960275 -0.0230648)
(0.434384 -0.0964598 -0.0215617)
(0.434119 -0.0968686 -0.0200507)
(0.435968 -0.0935104 -0.0304716)
(0.435705 -0.0940603 -0.0290079)
(0.435441 -0.0945873 -0.0275344)
(0.435176 -0.0950912 -0.0260516)
(0.437021 -0.0910826 -0.0362269)
(0.436758 -0.0917232 -0.0348045)
(0.436495 -0.0923414 -0.0333709)
(0.436232 -0.0929372 -0.0319265)
(0.438075 -0.0882844 -0.0418299)
(0.437812 -0.0890167 -0.0404478)
(0.437549 -0.0897273 -0.0390531)
(0.437285 -0.090416 -0.037646)
(0.439127 -0.0851338 -0.0472406)
(0.438865 -0.0859529 -0.0459087)
(0.438602 -0.0867512 -0.0445628)
(0.438339 -0.0875285 -0.0432031)
(0.440177 -0.081647 -0.0524293)
(0.439915 -0.0825489 -0.0511551)
(0.439653 -0.0834308 -0.0498653)
(0.43939 -0.0842925 -0.0485603)
(0.441228 -0.0778226 -0.0573948)
(0.440966 -0.0788075 -0.0561784)
(0.440703 -0.0797734 -0.0549451)
(0.44044 -0.08072 -0.0536954)
(0.442276 -0.0736892 -0.0620968)
(0.442014 -0.0747497 -0.0609481)
(0.441753 -0.0757922 -0.0597813)
(0.44149 -0.0768166 -0.0585968)
(0.443322 -0.0692613 -0.0665173)
(0.443061 -0.0703937 -0.0654408)
(0.4428 -0.0715094 -0.0643451)
(0.442538 -0.072608 -0.0632303)
(0.44437 -0.0645425 -0.0706495)
(0.444109 -0.0657458 -0.0696469)
(0.443847 -0.0669337 -0.0686238)
(0.443585 -0.0681056 -0.0675806)
(0.445414 -0.0595737 -0.0744558)
(0.445153 -0.0608375 -0.0735362)
(0.444893 -0.0620871 -0.0725951)
(0.444631 -0.0633222 -0.0716328)
(0.446457 -0.0543625 -0.0779288)
(0.446197 -0.0556849 -0.077094)
(0.445936 -0.0569944 -0.0762368)
(0.445675 -0.0582908 -0.0753573)
(0.447501 -0.0489204 -0.0810577)
(0.447241 -0.0502983 -0.0803104)
(0.44698 -0.0516649 -0.0795397)
(0.446719 -0.0530198 -0.0787458)
(0.448499 -0.0435275 -0.0837083)
(0.44825 -0.0448896 -0.0830788)
(0.448001 -0.0462427 -0.0824271)
(0.447751 -0.0475864 -0.0817533)
(0.449581 -0.0374955 -0.0861894)
(0.449311 -0.0390173 -0.0856093)
(0.449041 -0.0405302 -0.0850024)
(0.44877 -0.0420337 -0.0843687)
(0.450621 -0.0315414 -0.0881763)
(0.450362 -0.0330402 -0.0877177)
(0.450102 -0.0345324 -0.0872336)
(0.449842 -0.0360177 -0.0867241)
(0.451657 -0.0254808 -0.0897563)
(0.451399 -0.0270036 -0.0894001)
(0.45114 -0.0285216 -0.089018)
(0.450881 -0.0300343 -0.08861)
(0.452694 -0.0193106 -0.0909279)
(0.452435 -0.0208582 -0.0906745)
(0.452176 -0.0224028 -0.0903947)
(0.451917 -0.0239438 -0.0900887)
(0.453729 -0.0130823 -0.0916793)
(0.453471 -0.0146417 -0.0915312)
(0.453212 -0.0161999 -0.0913566)
(0.452953 -0.0177563 -0.0911555)
(0.454761 -0.00682078 -0.0920063)
(0.454504 -0.0083858 -0.0919646)
(0.454246 -0.00995135 -0.0918962)
(0.453988 -0.011517 -0.0918011)
(0.455795 -0.000535254 -0.0919057)
(0.455537 -0.00210353 -0.091971)
(0.455279 -0.00367419 -0.0920096)
(0.45502 -0.00524675 -0.0920214)
(0.456824 0.00571168 -0.0913774)
(0.456568 0.00415581 -0.0915494)
(0.45631 0.00259572 -0.0916948)
(0.456053 0.00103188 -0.0918136)
(0.457854 0.0119194 -0.0904195)
(0.457597 0.0103761 -0.0906986)
(0.45734 0.00882678 -0.0909514)
(0.457082 0.00727182 -0.0911777)
(0.458883 0.0180534 -0.0890343)
(0.458626 0.0165314 -0.0894197)
(0.458369 0.0150014 -0.0897792)
(0.458112 0.0134639 -0.0901125)
(0.459908 0.0240623 -0.0872323)
(0.459652 0.0225743 -0.0877212)
(0.459396 0.0210765 -0.0881846)
(0.45914 0.0195694 -0.0886223)
(0.460935 0.0299482 -0.0850105)
(0.460678 0.0284936 -0.0856035)
(0.460422 0.0270275 -0.0861716)
(0.460165 0.0255503 -0.0867147)
(0.461958 0.035657 -0.0823871)
(0.461703 0.0342493 -0.0830793)
(0.461447 0.0328284 -0.0837474)
(0.461191 0.0313945 -0.0843912)
(0.462979 0.0411665 -0.0793706)
(0.462724 0.0398113 -0.0801598)
(0.462469 0.0384411 -0.0809258)
(0.462214 0.0370562 -0.0816683)
(0.464001 0.0464639 -0.0759648)
(0.463746 0.0451643 -0.0768499)
(0.463491 0.043848 -0.0777127)
(0.463235 0.0425152 -0.0785531)
(0.465066 0.0517179 -0.0720224)
(0.4648 0.0504342 -0.0730427)
(0.464534 0.0491303 -0.0740401)
(0.464268 0.0478067 -0.0750143)
(0.466038 0.0562544 -0.0680847)
(0.465795 0.0551472 -0.0690964)
(0.465552 0.0540219 -0.0700902)
(0.465309 0.0528787 -0.0710656)
(0.467054 0.0607084 -0.0636374)
(0.4668 0.0596267 -0.0647772)
(0.466547 0.0585235 -0.0658986)
(0.466292 0.0573993 -0.0670012)
(0.468067 0.0648273 -0.0588876)
(0.467815 0.0638314 -0.0601008)
(0.467561 0.0628128 -0.0612971)
(0.467308 0.0617717 -0.0624761)
(0.469082 0.0686042 -0.0538398)
(0.468829 0.0676956 -0.055125)
(0.468575 0.0667631 -0.0563951)
(0.468322 0.0658069 -0.0576494)
(0.470065 0.0719163 -0.0486886)
(0.46982 0.0711234 -0.0499959)
(0.469574 0.070307 -0.0512905)
(0.469328 0.0694672 -0.052572)
(0.471101 0.07501 -0.0430139)
(0.470843 0.0742779 -0.0444517)
(0.470584 0.073518 -0.045877)
(0.470325 0.0727307 -0.0472895)
(0.472109 0.0776049 -0.0372725)
(0.471858 0.0769972 -0.0387232)
(0.471606 0.0763621 -0.040164)
(0.471354 0.0756997 -0.0415944)
(0.473115 0.0797685 -0.0313554)
(0.472864 0.0792694 -0.0328468)
(0.472613 0.0787424 -0.0343305)
(0.472361 0.0781875 -0.0358059)
(0.47412 0.0814937 -0.0252944)
(0.473869 0.0811045 -0.0268186)
(0.473618 0.0806872 -0.0283372)
(0.473367 0.0802419 -0.0298496)
(0.475123 0.0827713 -0.0191208)
(0.474873 0.0824954 -0.0206703)
(0.474622 0.0821903 -0.022216)
(0.474371 0.0818564 -0.0237575)
(0.476125 0.0835861 -0.0128612)
(0.475875 0.0834267 -0.014429)
(0.475625 0.0832377 -0.0159953)
(0.475374 0.0830193 -0.0175594)
(0.477125 0.0839293 -0.00656116)
(0.476875 0.083888 -0.00813566)
(0.476626 0.083817 -0.00971089)
(0.476376 0.0837164 -0.0112863)
(0.478121 0.0837971 -0.000258038)
(0.477873 0.0838746 -0.00182988)
(0.477624 0.0839226 -0.00340472)
(0.477374 0.0839409 -0.00498199)
(0.479083 0.0832187 0.00581152)
(0.478843 0.0834043 0.00430087)
(0.478603 0.0835626 0.0027854)
(0.478362 0.0836936 0.0012656)
(0.48011 0.082112 0.0122428)
(0.479854 0.0824354 0.0106464)
(0.479598 0.0827278 0.00904198)
(0.479341 0.0829889 0.00743014)
(0.481093 0.080578 0.0183089)
(0.480848 0.081004 0.0168063)
(0.480603 0.0814017 0.0152941)
(0.480357 0.0817711 0.0137727)
(0.482093 0.0785443 0.0243519)
(0.481844 0.0790957 0.022859)
(0.481594 0.0796186 0.0213538)
(0.481344 0.0801129 0.019837)
(0.483081 0.0760721 0.030167)
(0.482835 0.0767309 0.0287339)
(0.482588 0.0773627 0.0272867)
(0.482341 0.0779672 0.0258259)
(0.484069 0.0731547 0.0357818)
(0.483822 0.0739234 0.0344021)
(0.483576 0.0746661 0.033006)
(0.483329 0.0753824 0.0315941)
(0.485052 0.0698169 0.0411416)
(0.484807 0.0706889 0.0398287)
(0.484561 0.0715361 0.0384975)
(0.484315 0.0723582 0.0371483)
(0.486035 0.0660587 0.0462394)
(0.48579 0.0670338 0.0449951)
(0.485544 0.0679855 0.0437305)
(0.485298 0.0689134 0.0424458)
(0.487013 0.0619262 0.0510103)
(0.486769 0.0629924 0.0498505)
(0.486525 0.0640368 0.0486685)
(0.48628 0.0650591 0.0474646)
(0.487993 0.0574095 0.0554597)
(0.487749 0.0585694 0.0543833)
(0.487504 0.0597091 0.0532826)
(0.487259 0.0608283 0.0521582)
(0.488968 0.052565 0.0595272)
(0.488725 0.0538039 0.0585486)
(0.488481 0.0550246 0.0575443)
(0.488237 0.0562266 0.0565145)
(0.489941 0.0474064 0.0631984)
(0.489699 0.0487209 0.0623213)
(0.489456 0.0500192 0.0614169)
(0.489212 0.0513008 0.0604854)
(0.490914 0.0419631 0.0664477)
(0.490671 0.0433455 0.0656782)
(0.490428 0.0447139 0.06488)
(0.490185 0.0460677 0.0640533)
(0.491882 0.0362848 0.0692422)
(0.49164 0.0377225 0.0685882)
(0.491399 0.0391485 0.0679044)
(0.491156 0.0405622 0.0671908)
(0.49285 0.0303804 0.0715736)
(0.492609 0.0318711 0.0710372)
(0.492367 0.0333525 0.0704697)
(0.492124 0.0348239 0.0698713)
(0.493813 0.0243215 0.0734105)
(0.493573 0.0258469 0.0729988)
(0.493332 0.0273657 0.0725554)
(0.493091 0.0288771 0.0720803)
(0.494777 0.0181119 0.0747477)
(0.494536 0.0196711 0.0744622)
(0.494296 0.0212262 0.0741441)
(0.494055 0.0227766 0.0737935)
(0.495748 0.011742 0.0755734)
(0.495506 0.0133372 0.0754176)
(0.495263 0.0149311 0.0752281)
(0.49502 0.0165229 0.0750048)
(0.496693 0.00548107 0.0758595)
(0.496458 0.00704494 0.0758365)
(0.496222 0.00861015 0.0757811)
(0.495985 0.010176 0.0756935)
(0.497647 -0.000857014 0.0756225)
(0.497409 0.000721938 0.0757314)
(0.497171 0.00230507 0.0758073)
(0.496932 0.00389168 0.07585)
(0.4986 -0.00716645 0.0748513)
(0.498362 -0.00559892 0.0750936)
(0.498125 -0.00402439 0.075303)
(0.497886 -0.00244352 0.0754794)
(0.499549 -0.0133853 0.0735498)
(0.499313 -0.0118447 0.0739239)
(0.499076 -0.0102942 0.0742656)
(0.498838 -0.00873454 0.0745748)
(0.500496 -0.0194715 0.0717233)
(0.50026 -0.0179683 0.0722276)
(0.500024 -0.0164524 0.0727003)
(0.499787 -0.0149245 0.0731412)
(0.501441 -0.0253878 0.0693787)
(0.501206 -0.0239312 0.0700111)
(0.50097 -0.0224592 0.0706129)
(0.500733 -0.0209724 0.0711837)
(0.502384 -0.0310828 0.0665305)
(0.502149 -0.0296857 0.067287)
(0.501913 -0.0282705 0.0680142)
(0.501678 -0.0268376 0.0687116)
(0.503322 -0.0365027 0.0632027)
(0.503088 -0.0351783 0.0640768)
(0.502854 -0.033833 0.064923)
(0.502619 -0.0324677 0.0657411)
(0.504256 -0.0416104 0.0594155)
(0.504023 -0.0403679 0.0604019)
(0.50379 -0.0391021 0.0613623)
(0.503556 -0.0378135 0.0622961)
(0.505191 -0.0463805 0.0551805)
(0.504958 -0.0452261 0.056276)
(0.504725 -0.0440459 0.0573474)
(0.504491 -0.0428405 0.0583941)
(0.506119 -0.0507464 0.0505509)
(0.505888 -0.0496964 0.0517416)
(0.505656 -0.0486184 0.0529106)
(0.505424 -0.0475129 0.0540571)
(0.507048 -0.0546952 0.0455342)
(0.506816 -0.0537527 0.0468182)
(0.506585 -0.0527802 0.0480828)
(0.506352 -0.0517779 0.0493272)
(0.50797 -0.0581695 0.0401964)
(0.50774 -0.0573484 0.0415566)
(0.50751 -0.0564954 0.0429002)
(0.507279 -0.0556109 0.0442263)
(0.508892 -0.061157 0.0345477)
(0.508663 -0.0604602 0.0359815)
(0.508432 -0.0597299 0.0374014)
(0.508202 -0.0589662 0.0388066)
(0.509808 -0.0636122 0.0286649)
(0.50958 -0.0630505 0.0301525)
(0.509352 -0.062454 0.0316295)
(0.509122 -0.0618227 0.0330948)
(0.510724 -0.0655241 0.0225613)
(0.510496 -0.0651001 0.0240995)
(0.510267 -0.0646401 0.02563)
(0.510038 -0.0641441 0.0271521)
(0.511633 -0.0668611 0.0163223)
(0.511407 -0.066582 0.0178892)
(0.51118 -0.0662661 0.019452)
(0.510952 -0.0659134 0.0210096)
(0.512542 -0.0676143 0.00996478)
(0.512316 -0.0674822 0.0115562)
(0.512089 -0.0673127 0.0131468)
(0.511862 -0.0671056 0.0147358)
(0.513445 -0.0677681 0.0035796)
(0.51322 -0.0677861 0.00517258)
(0.512995 -0.0677666 0.00676836)
(0.512769 -0.0677093 0.00836606)
(0.514346 -0.0673167 -0.00281258)
(0.514122 -0.0674861 -0.00122328)
(0.513897 -0.0676179 0.000372449)
(0.513671 -0.067712 0.00197371)
(0.515269 -0.0662194 -0.0093107)
(0.515039 -0.0665529 -0.00770136)
(0.514809 -0.0668472 -0.00608127)
(0.514578 -0.0671019 -0.00445135)
(0.516135 -0.0646009 -0.0153141)
(0.51592 -0.0650569 -0.0138318)
(0.515703 -0.0654789 -0.0123367)
(0.515486 -0.0658665 -0.0108294)
(0.517023 -0.0623524 -0.0213103)
(0.516802 -0.0629674 -0.0198364)
(0.516581 -0.0635475 -0.0183451)
(0.516358 -0.0640921 -0.0168374)
(0.517909 -0.0595248 -0.0270705)
(0.517688 -0.0602824 -0.0256609)
(0.517467 -0.0610065 -0.0242305)
(0.517246 -0.0616967 -0.02278)
(0.51879 -0.0561441 -0.032525)
(0.51857 -0.0570371 -0.0311971)
(0.518351 -0.0578987 -0.0298448)
(0.51813 -0.0587281 -0.0284691)
(0.519666 -0.0522404 -0.0376172)
(0.519448 -0.0532607 -0.0363847)
(0.519229 -0.0542518 -0.0351247)
(0.51901 -0.0552132 -0.0338379)
(0.520539 -0.047836 -0.0423049)
(0.520322 -0.0489777 -0.0411783)
(0.520104 -0.0500929 -0.0400211)
(0.519885 -0.0511807 -0.0388339)
(0.521381 -0.0431329 -0.0464052)
(0.521172 -0.0443426 -0.0454269)
(0.520962 -0.0455303 -0.044417)
(0.520751 -0.046695 -0.0433761)
(0.522271 -0.0377236 -0.0502269)
(0.52205 -0.0391088 -0.0493282)
(0.521828 -0.0404728 -0.0483913)
(0.521605 -0.0418145 -0.0474169)
(0.523128 -0.0321169 -0.0533693)
(0.522915 -0.0335441 -0.0526407)
(0.522701 -0.0349549 -0.0518738)
(0.522486 -0.0363484 -0.0510691)
(0.523983 -0.0261946 -0.0559227)
(0.523771 -0.0276949 -0.0553445)
(0.523557 -0.0291827 -0.054726)
(0.523343 -0.0306571 -0.0540675)
(0.524831 -0.020049 -0.0578395)
(0.524621 -0.0215988 -0.0574225)
(0.524409 -0.0231404 -0.0569641)
(0.524197 -0.0246727 -0.0564641)
(0.525676 -0.0137211 -0.0591001)
(0.525466 -0.0153098 -0.0588491)
(0.525255 -0.0168948 -0.0585552)
(0.525044 -0.018475 -0.0582186)
(0.526515 -0.00728821 -0.0596792)
(0.526307 -0.00889626 -0.0595996)
(0.526097 -0.0105052 -0.0594767)
(0.525887 -0.0121139 -0.0593102)
(0.527348 -0.00083828 -0.0595632)
(0.527141 -0.00244343 -0.0596575)
(0.526933 -0.00405427 -0.0597084)
(0.526725 -0.00566959 -0.0597157)
(0.528177 0.00558362 -0.0587434)
(0.527971 0.00399278 -0.0590134)
(0.527764 0.0023914 -0.0592403)
(0.527557 0.000780653 -0.0594237)
(0.529013 0.0119729 -0.0571935)
(0.528806 0.0103984 -0.0576467)
(0.528597 0.00880787 -0.0580565)
(0.528388 0.00720253 -0.0584222)
(0.529815 0.0179518 -0.0550168)
(0.529616 0.0164854 -0.0556203)
(0.529416 0.0149994 -0.0561846)
(0.529215 0.0134949 -0.0567092)
(0.530626 0.0237597 -0.0521344)
(0.530425 0.0223442 -0.0529135)
(0.530223 0.0209037 -0.0536542)
(0.53002 0.0194392 -0.0543556)
(0.53143 0.0291976 -0.0486162)
(0.53123 0.0278815 -0.0495502)
(0.53103 0.0265358 -0.0504485)
(0.530829 0.0251615 -0.0513102)
(0.532228 0.034213 -0.0444835)
(0.53203 0.0330092 -0.0455665)
(0.531831 0.0317715 -0.046617)
(0.531631 0.0305007 -0.0476339)
(0.533019 0.0387106 -0.0398012)
(0.532823 0.0376424 -0.0410159)
(0.532626 0.0365363 -0.0422019)
(0.532428 0.0353929 -0.0433582)
(0.533803 0.0426318 -0.0346194)
(0.533608 0.0417133 -0.0359524)
(0.533413 0.0407531 -0.0372612)
(0.533216 0.039752 -0.0385446)
(0.534581 0.045919 -0.0289915)
(0.534388 0.0451641 -0.0304288)
(0.534194 0.0443643 -0.0318469)
(0.533999 0.04352 -0.0332442)
(0.535349 0.048502 -0.0230181)
(0.535159 0.0479271 -0.0245337)
(0.534967 0.0473048 -0.0260354)
(0.534774 0.0466353 -0.0275219)
(0.536132 0.0503824 -0.0165881)
(0.535938 0.0499906 -0.0182098)
(0.535743 0.0495464 -0.0198231)
(0.535546 0.0490502 -0.0214265)
(0.536865 0.0514001 -0.0103123)
(0.536683 0.051218 -0.0118853)
(0.536501 0.0509877 -0.0134566)
(0.536317 0.0507092 -0.0150246)
(0.53761 0.0516427 -0.00378663)
(0.537426 0.0516594 -0.00541265)
(0.53724 0.0516247 -0.00704335)
(0.537053 0.0515383 -0.00867713)
(0.538346 0.0510571 0.00272561)
(0.538164 0.0512806 0.00111306)
(0.53798 0.051453 -0.000510941)
(0.537796 0.0515738 -0.00214473)
(0.539074 0.0496354 0.00912835)
(0.538894 0.0500666 0.00755345)
(0.538713 0.0504478 0.0059603)
(0.53853 0.0507782 0.00435048)
(0.539792 0.047391 0.0152915)
(0.539615 0.0480249 0.0137868)
(0.539436 0.048611 0.012257)
(0.539256 0.0491481 0.0107037)
(0.5405 0.0443524 0.0211038)
(0.540325 0.0451804 0.0196969)
(0.540149 0.0459635 0.0182583)
(0.539971 0.0467008 0.0167893)
(0.541212 0.0404641 0.0265773)
(0.541036 0.0415013 0.0252674)
(0.540859 0.0424961 0.0239176)
(0.54068 0.043447 0.0225292)
(0.541885 0.0360425 0.0312805)
(0.541719 0.0372009 0.0301674)
(0.541551 0.038325 0.0290118)
(0.541382 0.0394132 0.0278148)
(0.54256 0.0309113 0.0354187)
(0.542394 0.0322404 0.0344578)
(0.542225 0.0335399 0.0334473)
(0.542056 0.0348079 0.0323879)
(0.543223 0.0252455 0.0387957)
(0.543059 0.0266979 0.0380323)
(0.542894 0.0281277 0.0372146)
(0.542728 0.0295328 0.0363431)
(0.543879 0.0190871 0.0413503)
(0.543717 0.0206514 0.0408001)
(0.543554 0.0222007 0.0401906)
(0.543389 0.0237328 0.0395223)
(0.544512 0.0127086 0.0429571)
(0.544356 0.0143145 0.0426455)
(0.544198 0.0159144 0.0422738)
(0.544039 0.0175061 0.0418421)
(0.545135 0.00610106 0.0436078)
(0.544982 0.00775051 0.0435393)
(0.544827 0.00940319 0.0434082)
(0.54467 0.0110567 0.0432143)
(0.545743 -0.0005347 0.0432503)
(0.545594 0.00110697 0.0434342)
(0.545443 0.00276172 0.0435557)
(0.54529 0.00442723 0.0436137)
(0.546309 -0.00675229 0.0419564)
(0.54617 -0.00522708 0.0423644)
(0.546029 -0.00368105 0.0427167)
(0.545887 -0.00211621 0.0430122)
(0.546911 -0.0132717 0.0394781)
(0.546763 -0.0116942 0.0401944)
(0.546614 -0.01008 0.0408474)
(0.546462 -0.00843176 0.0414352)
(0.547446 -0.018813 0.0362668)
(0.547315 -0.0174853 0.0371447)
(0.547182 -0.0161179 0.0379736)
(0.547047 -0.0147128 0.038752)
(0.547939 -0.0235724 0.0324203)
(0.54787 -0.0229342 0.0330089)
(0.547731 -0.0216151 0.0341484)
(0.547589 -0.0202407 0.0352353)
(0.427798 -0.0994819 -0.00623334)
(0.427534 -0.0996475 -0.00468019)
(0.427269 -0.0997891 -0.00312334)
(0.427004 -0.0999066 -0.00156316)
(0.426799 -0.0999441 -0.000781834)
(0.426678 -0.0999986 -1.22227e-05)
(0.426677 -0.0999993 -6.11139e-06)
(0.426679 -0.0999993 -1.22228e-05)
(0.426678 -0.0999998 -6.11143e-06)
(0.426677 -0.0999998 -3.05571e-06)
(0.426679 -0.0999968 -2.4445e-05)
(0.426677 -0.0999981 -1.22227e-05)
(0.426676 -0.0999985 -6.11135e-06)
(0.426676 -0.0999989 -3.05569e-06)
(0.428857 -0.098575 -0.0124186)
(0.428593 -0.098838 -0.0108797)
(0.428328 -0.0990769 -0.0093356)
(0.428064 -0.0992915 -0.00778669)
(0.429914 -0.097279 -0.0185362)
(0.42965 -0.0976388 -0.0170166)
(0.429386 -0.0979748 -0.0154902)
(0.429122 -0.0982869 -0.0139574)
(0.430972 -0.095597 -0.0245652)
(0.430708 -0.0960527 -0.0230699)
(0.430443 -0.096485 -0.0215665)
(0.430179 -0.0968939 -0.0200551)
(0.432028 -0.0935352 -0.0304784)
(0.431764 -0.0940852 -0.0290143)
(0.4315 -0.0946122 -0.0275406)
(0.431236 -0.0951162 -0.0260574)
(0.433081 -0.091107 -0.036235)
(0.432818 -0.0917477 -0.0348123)
(0.432555 -0.092366 -0.0333784)
(0.432292 -0.0929619 -0.0319336)
(0.434135 -0.0883084 -0.0418393)
(0.433872 -0.0890408 -0.040457)
(0.433608 -0.0897515 -0.0390619)
(0.433345 -0.0904403 -0.0376545)
(0.435187 -0.0851572 -0.0472512)
(0.434924 -0.0859765 -0.0459191)
(0.434661 -0.086775 -0.0445728)
(0.434398 -0.0875523 -0.0432128)
(0.436237 -0.0816699 -0.0524413)
(0.435975 -0.0825719 -0.0511667)
(0.435712 -0.083454 -0.0498766)
(0.43545 -0.0843158 -0.0485713)
(0.437287 -0.0778448 -0.0574079)
(0.437025 -0.0788299 -0.0561912)
(0.436763 -0.0797959 -0.0549577)
(0.4365 -0.0807427 -0.0537076)
(0.438336 -0.0737107 -0.0621111)
(0.438074 -0.0747714 -0.0609621)
(0.437812 -0.0758142 -0.0597951)
(0.43755 -0.0768387 -0.0586102)
(0.439382 -0.0692821 -0.0665328)
(0.439121 -0.0704147 -0.065456)
(0.43886 -0.0715306 -0.06436)
(0.438598 -0.0726294 -0.0632449)
(0.44043 -0.0645624 -0.0706661)
(0.440168 -0.065766 -0.0696632)
(0.439907 -0.066954 -0.0686399)
(0.439644 -0.0681262 -0.0675963)
(0.441474 -0.0595928 -0.0744734)
(0.441213 -0.0608568 -0.0735535)
(0.440952 -0.0621066 -0.0726122)
(0.440691 -0.063342 -0.0716496)
(0.442517 -0.0543806 -0.0779475)
(0.442256 -0.0557032 -0.0771125)
(0.441996 -0.0570131 -0.076255)
(0.441735 -0.0583097 -0.0753753)
(0.443561 -0.0489375 -0.0810773)
(0.4433 -0.0503157 -0.0803298)
(0.443039 -0.0516826 -0.0795589)
(0.442778 -0.0530377 -0.0787647)
(0.444559 -0.0435436 -0.0837289)
(0.44431 -0.044906 -0.0830992)
(0.444061 -0.0462593 -0.0824472)
(0.443811 -0.0476033 -0.0817732)
(0.445641 -0.0375105 -0.0862109)
(0.445371 -0.0390326 -0.0856306)
(0.445101 -0.0405458 -0.0850234)
(0.44483 -0.0420496 -0.0843895)
(0.446681 -0.0315553 -0.0881987)
(0.446421 -0.0330543 -0.0877398)
(0.446162 -0.0345468 -0.0872555)
(0.445901 -0.0360324 -0.0867459)
(0.447717 -0.0254935 -0.0897795)
(0.447458 -0.0270166 -0.0894231)
(0.447199 -0.0285349 -0.0890407)
(0.44694 -0.0300479 -0.0886326)
(0.448754 -0.019322 -0.0909517)
(0.448495 -0.0208699 -0.0906981)
(0.448236 -0.0224148 -0.0904182)
(0.447976 -0.0239561 -0.090112)
(0.449789 -0.0130924 -0.0917038)
(0.44953 -0.0146522 -0.0915556)
(0.449272 -0.0162107 -0.0913808)
(0.449013 -0.0177674 -0.0911795)
(0.450821 -0.00682957 -0.0920314)
(0.450563 -0.00839493 -0.0919896)
(0.450306 -0.00996082 -0.091921)
(0.450047 -0.0115268 -0.0918258)
(0.451855 -0.000542679 -0.0919314)
(0.451597 -0.0021113 -0.0919966)
(0.451339 -0.0036823 -0.092035)
(0.45108 -0.00525521 -0.0920466)
(0.452884 0.00570566 -0.0914035)
(0.452627 0.00414943 -0.0915754)
(0.45237 0.002589 -0.0917207)
(0.452113 0.00102481 -0.0918394)
(0.453914 0.0119148 -0.090446)
(0.453657 0.0103712 -0.0907251)
(0.4534 0.00882148 -0.0909778)
(0.453142 0.00726615 -0.091204)
(0.454943 0.0180503 -0.0890611)
(0.454686 0.0165279 -0.0894465)
(0.454429 0.0149975 -0.0898059)
(0.454171 0.0134597 -0.0901391)
(0.455968 0.0240607 -0.0872594)
(0.455712 0.0225723 -0.0877482)
(0.455456 0.0210741 -0.0882116)
(0.4552 0.0195666 -0.0886492)
(0.456994 0.0299481 -0.0850378)
(0.456738 0.0284932 -0.0856308)
(0.456482 0.0270267 -0.0861989)
(0.456225 0.0255491 -0.0867418)
(0.458017 0.0356584 -0.0824144)
(0.457762 0.0342504 -0.0831066)
(0.457507 0.032829 -0.0837747)
(0.457251 0.0313948 -0.0844185)
(0.459039 0.0411695 -0.079398)
(0.458784 0.0398139 -0.0801872)
(0.458529 0.0384433 -0.0809532)
(0.458273 0.037058 -0.0816957)
(0.460061 0.0464685 -0.0759921)
(0.459806 0.0451685 -0.0768772)
(0.459551 0.0438518 -0.0777401)
(0.459295 0.0425186 -0.0785805)
(0.461126 0.0517242 -0.0720495)
(0.46086 0.05044 -0.0730699)
(0.460594 0.0491357 -0.0740674)
(0.460328 0.0478117 -0.0750416)
(0.462097 0.0562622 -0.0681116)
(0.461855 0.0551546 -0.0691234)
(0.461612 0.0540289 -0.0701172)
(0.461369 0.0528853 -0.0710927)
(0.463114 0.0607178 -0.063664)
(0.46286 0.0596356 -0.0648039)
(0.462606 0.0585321 -0.0659254)
(0.462352 0.0574075 -0.0670281)
(0.464127 0.0648383 -0.0589138)
(0.463874 0.063842 -0.0601271)
(0.463621 0.062823 -0.0613235)
(0.463368 0.0617815 -0.0625026)
(0.465141 0.0686168 -0.0538655)
(0.464888 0.0677078 -0.0551509)
(0.464635 0.0667749 -0.056421)
(0.464381 0.0658183 -0.0576755)
(0.466125 0.0719303 -0.0487137)
(0.465879 0.0711371 -0.0500212)
(0.465634 0.0703203 -0.051316)
(0.465388 0.0694802 -0.0525975)
(0.467161 0.0750254 -0.0430383)
(0.466902 0.0742929 -0.0444763)
(0.466644 0.0735327 -0.0459018)
(0.466384 0.0727451 -0.0473144)
(0.468169 0.0776219 -0.0372961)
(0.467917 0.0770138 -0.038747)
(0.467666 0.0763783 -0.0401881)
(0.467413 0.0757154 -0.0416187)
(0.469175 0.0797872 -0.0313782)
(0.468924 0.0792877 -0.0328699)
(0.468673 0.0787603 -0.0343538)
(0.468421 0.078205 -0.0358294)
(0.47018 0.081514 -0.0253162)
(0.469929 0.0811244 -0.0268407)
(0.469678 0.0807068 -0.0283596)
(0.469427 0.080261 -0.0298723)
(0.471183 0.0827929 -0.0191415)
(0.470932 0.0825167 -0.0206913)
(0.470682 0.0822113 -0.0222373)
(0.470431 0.081877 -0.0237791)
(0.472185 0.083609 -0.0128807)
(0.471935 0.0834493 -0.0144488)
(0.471684 0.08326 -0.0160154)
(0.471434 0.0830413 -0.0175798)
(0.473184 0.0839535 -0.00657943)
(0.472935 0.0839119 -0.00815425)
(0.472685 0.0838406 -0.00972979)
(0.472435 0.0837396 -0.0113055)
(0.474181 0.0838227 -0.000274967)
(0.473932 0.0838999 -0.00184716)
(0.473683 0.0839475 -0.00342233)
(0.473434 0.0839654 -0.00499994)
(0.475143 0.0832457 0.005796)
(0.474903 0.083431 0.00428499)
(0.474663 0.083589 0.00276916)
(0.474422 0.0837196 0.00124901)
(0.47617 0.08214 0.0122289)
(0.475914 0.0824632 0.0106321)
(0.475657 0.0827553 0.00902725)
(0.4754 0.0830161 0.00741501)
(0.477153 0.080607 0.0182966)
(0.476908 0.0810326 0.0167936)
(0.476662 0.0814302 0.0152809)
(0.476417 0.0817993 0.0137592)
(0.478153 0.0785744 0.0243414)
(0.477903 0.0791255 0.022848)