/*--------------------------------*- C++ -*----------------------------------*\
| =========                 |                                                 |
| \\      /  F ield         | OpenFOAM: The Open Source CFD Toolbox           |
|  \\    /   O peration     | Version:  v1912                                 |
|   \\  /    A nd           | Website:  www.openfoam.com                      |
|    \\/     M anipulation  |                                                 |
\*---------------------------------------------------------------------------*/
FoamFile
{
    version     2.0;
    format      ascii;
    class       featureEdgeMesh;
    location    "constant/triSurface";
    object      propellerCylinder_d=0_22.eMesh;
}
// * * * * * * * * * * * * * * * * * * * * * * * * * * * * * * * * * * * * * //


// points:

256
(
(-0.0296734 0.0934268 -0.05809)
(-0.0296734 0.0961503 -0.053462)
(-0.0296734 0.0684544 -0.0861226)
(-0.0296734 0.0727375 -0.082537)
(-0.0296734 0.0342158 -0.104558)
(-0.0296734 0.0395138 -0.102673)
(-0.0296734 0.0986406 -0.0487147)
(-0.0296734 0.0875171 -0.0666628)
(-0.0296734 0.090596 -0.0624127)
(-0.0296734 0.0841873 -0.0708204)
(-0.0296734 0.0767929 -0.0787776)
(-0.0296734 0.0806111 -0.0748653)
(-0.0296734 0.0640003 -0.0894826)
(-0.0296734 0.059429 -0.0925813)
(-0.0296734 0.0497643 -0.0981153)
(-0.0296734 0.0546786 -0.0954638)
(-0.0296734 0.0447032 -0.100523)
(-0.0296734 0.0288299 -0.106169)
(-0.0296734 0.0178797 -0.108552)
(-0.0296734 0.0233773 -0.107502)
(-0.0296734 0.012359 -0.109318)
(-0.0296734 0.00133377 -0.110006)
(-0.0296734 0.00683659 -0.109801)
(-0.0296734 -0.00412906 -0.109937)
(-0.0296734 -0.0353335 -0.104186)
(-0.0296734 -0.0302037 -0.105786)
(-0.0296734 -0.0148578 -0.109006)
(-0.0296734 -0.00953235 -0.1096)
(-0.0296734 -0.0200883 -0.108164)
(-0.0296734 -0.0252083 -0.107087)
(-0.0296734 -0.045129 -0.100332)
(-0.0296734 -0.0403406 -0.102351)
(-0.0296734 -0.0487147 -0.0986406)
(-0.0296734 -0.05809 -0.0934268)
(-0.0296734 -0.053462 -0.0961503)
(-0.0296734 -0.0861226 -0.0684544)
(-0.0296734 -0.082537 -0.0727375)
(-0.0296734 -0.104558 -0.0342158)
(-0.0296734 -0.102673 -0.0395138)
(-0.0296734 -0.0666628 -0.0875171)
(-0.0296734 -0.0624127 -0.090596)
(-0.0296734 -0.0708204 -0.0841873)
(-0.0296734 -0.0787776 -0.0767929)
(-0.0296734 -0.0748653 -0.0806111)
(-0.0296734 -0.0894826 -0.0640003)
(-0.0296734 -0.109937 0.00412906)
(-0.0296734 -0.110006 -0.00133377)
(-0.0296734 -0.0925813 -0.059429)
(-0.0296734 -0.0954638 -0.0546786)
(-0.0296734 -0.100523 -0.0447032)
(-0.0296734 -0.0981153 -0.0497643)
(-0.0296734 -0.106169 -0.0288299)
(-0.0296734 -0.107502 -0.0233773)
(-0.0296734 -0.109318 -0.012359)
(-0.0296734 -0.108552 -0.0178797)
(-0.0296734 -0.109801 -0.00683659)
(-0.0296734 -0.104186 0.0353335)
(-0.0296734 -0.105786 0.0302037)
(-0.0296734 -0.1096 0.00953235)
(-0.0296734 -0.109006 0.0148578)
(-0.0296734 -0.107087 0.0252083)
(-0.0296734 -0.108164 0.0200883)
(-0.0296734 -0.102351 0.0403406)
(-0.0296734 -0.0986406 0.0487147)
(-0.0296734 -0.100332 0.045129)
(-0.0296734 -0.0934268 0.05809)
(-0.0296734 -0.0961503 0.053462)
(-0.0296734 -0.0684544 0.0861226)
(-0.0296734 -0.0727375 0.082537)
(-0.0296734 -0.0342158 0.104558)
(-0.0296734 -0.0395138 0.102673)
(-0.0296734 -0.0875171 0.0666628)
(-0.0296734 -0.090596 0.0624127)
(-0.0296734 -0.0841873 0.0708204)
(-0.0296734 -0.0767929 0.0787776)
(-0.0296734 -0.0806111 0.0748653)
(-0.0296734 -0.0640003 0.0894826)
(-0.0296734 -0.059429 0.0925813)
(-0.0296734 -0.0497643 0.0981153)
(-0.0296734 -0.0546786 0.0954638)
(-0.0296734 -0.0447032 0.100523)
(-0.0296734 -0.0288299 0.106169)
(-0.0296734 -0.0178797 0.108552)
(-0.0296734 -0.0233773 0.107502)
(-0.0296734 -0.012359 0.109318)
(-0.0296734 -0.00133377 0.110006)
(-0.0296734 -0.00683659 0.109801)
(-0.0296734 0.00412906 0.109937)
(-0.0296734 0.0353335 0.104186)
(-0.0296734 0.0302037 0.105786)
(-0.0296734 0.0148578 0.109006)
(-0.0296734 0.00953235 0.1096)
(-0.0296734 0.0200883 0.108164)
(-0.0296734 0.0252083 0.107087)
(-0.0296734 0.045129 0.100332)
(-0.0296734 0.0403406 0.102351)
(-0.0296734 0.053462 0.0961503)
(-0.0296734 0.0487147 0.0986406)
(-0.0296734 0.05809 0.0934268)
(-0.0296734 0.0861226 0.0684544)
(-0.0296734 0.082537 0.0727375)
(-0.0296734 0.104558 0.0342158)
(-0.0296734 0.102673 0.0395138)
(-0.0296734 0.0624127 0.090596)
(-0.0296734 0.0708204 0.0841873)
(-0.0296734 0.0666628 0.0875171)
(-0.0296734 0.0748653 0.0806111)
(-0.0296734 0.0787776 0.0767929)
(-0.0296734 0.0925813 0.059429)
(-0.0296734 0.0894826 0.0640003)
(-0.0296734 0.0954638 0.0546786)
(-0.0296734 0.0981153 0.0497643)
(-0.0296734 0.100523 0.0447032)
(-0.0296734 0.107502 0.0233773)
(-0.0296734 0.106169 0.0288299)
(-0.0296734 0.108552 0.0178797)
(-0.0296734 0.109801 0.00683659)
(-0.0296734 0.109318 0.012359)
(-0.0296734 0.109937 -0.00412906)
(-0.0296734 0.110006 0.00133377)
(-0.0296734 0.1096 -0.00953235)
(-0.0296734 0.104186 -0.0353335)
(-0.0296734 0.105786 -0.0302037)
(-0.0296734 0.109006 -0.0148578)
(-0.0296734 0.108164 -0.0200883)
(-0.0296734 0.107087 -0.0252083)
(-0.0296734 0.100332 -0.045129)
(-0.0296734 0.102351 -0.0403406)
(0.59017 0.104628 -0.0340009)
(0.59017 0.102916 -0.0388759)
(0.59017 0.100897 -0.0438517)
(0.59017 0.107408 -0.0238013)
(0.59017 0.106131 -0.028972)
(0.59017 0.109232 -0.0130925)
(0.59017 0.108447 -0.0185029)
(0.59017 0.109996 -0.00200727)
(0.59017 0.109752 -0.00758764)
(0.59017 0.109638 0.00908556)
(0.59017 0.109956 0.00357224)
(0.59017 0.108157 0.0201238)
(0.59017 0.10904 0.0146098)
(0.59017 0.105546 0.0310336)
(0.59017 0.106992 0.0256057)
(0.59017 0.101828 0.0416425)
(0.59017 0.103823 0.0363863)
(0.59017 0.097064 0.0517854)
(0.59017 0.099572 0.0467819)
(0.59017 0.0913436 0.0613141)
(0.59017 0.0943163 0.056635)
(0.59017 0.0847858 0.0701036)
(0.59017 0.0881612 0.0658079)
(0.59017 0.077525 0.078057)
(0.59017 0.0812338 0.0741898)
(0.59017 0.0697098 0.0851098)
(0.59017 0.0736776 0.0816986)
(0.59017 0.0612514 0.0913859)
(0.59017 0.0656407 0.0882856)
(0.59017 0.0522371 0.0968214)
(0.59017 0.0567511 0.094247)
(0.59017 0.0438517 0.100897)
(0.59017 0.0487147 0.0986406)
(0.59017 0.0340009 0.104628)
(0.59017 0.0388759 0.102916)
(0.59017 0.0238013 0.107408)
(0.59017 0.028972 0.106131)
(0.59017 0.0130925 0.109232)
(0.59017 0.0185029 0.108447)
(0.59017 0.00200727 0.109996)
(0.59017 0.00758764 0.109752)
(0.59017 -0.00908556 0.109638)
(0.59017 -0.00357224 0.109956)
(0.59017 -0.0201238 0.108157)
(0.59017 -0.0146098 0.10904)
(0.59017 -0.0310336 0.105546)
(0.59017 -0.0256057 0.106992)
(0.59017 -0.0416425 0.101828)
(0.59017 -0.0363863 0.103823)
(0.59017 -0.0517854 0.097064)
(0.59017 -0.0467819 0.099572)
(0.59017 -0.0613141 0.0913436)
(0.59017 -0.056635 0.0943163)
(0.59017 -0.0701036 0.0847858)
(0.59017 -0.0658079 0.0881612)
(0.59017 -0.078057 0.077525)
(0.59017 -0.0741898 0.0812338)
(0.59017 -0.0851098 0.0697098)
(0.59017 -0.0816986 0.0736776)
(0.59017 -0.0913859 0.0612514)
(0.59017 -0.0882856 0.0656407)
(0.59017 -0.0968214 0.0522371)
(0.59017 -0.094247 0.0567511)
(0.59017 -0.0986406 0.0487147)
(0.59017 0.0986406 -0.0487147)
(0.59017 -0.102916 0.0388759)
(0.59017 -0.100897 0.0438517)
(0.59017 -0.106131 0.028972)
(0.59017 -0.104628 0.0340009)
(0.59017 -0.108447 0.0185029)
(0.59017 -0.107408 0.0238013)
(0.59017 -0.109752 0.00758764)
(0.59017 -0.109232 0.0130925)
(0.59017 -0.109956 -0.00357224)
(0.59017 -0.109996 0.00200727)
(0.59017 -0.10904 -0.0146098)
(0.59017 -0.109638 -0.00908556)
(0.59017 -0.106992 -0.0256057)
(0.59017 -0.108157 -0.0201238)
(0.59017 -0.103823 -0.0363863)
(0.59017 -0.105546 -0.0310336)
(0.59017 -0.099572 -0.0467819)
(0.59017 -0.101828 -0.0416425)
(0.59017 -0.0943163 -0.056635)
(0.59017 -0.097064 -0.0517854)
(0.59017 -0.0881612 -0.0658079)
(0.59017 -0.0913436 -0.0613141)
(0.59017 -0.0812338 -0.0741898)
(0.59017 -0.0847858 -0.0701036)
(0.59017 -0.0736776 -0.0816986)
(0.59017 -0.077525 -0.078057)
(0.59017 -0.0656407 -0.0882856)
(0.59017 -0.0697098 -0.0851098)
(0.59017 -0.0567511 -0.094247)
(0.59017 -0.0612514 -0.0913859)
(0.59017 -0.0487147 -0.0986406)
(0.59017 -0.0522371 -0.0968214)
(0.59017 -0.0388759 -0.102916)
(0.59017 -0.0438517 -0.100897)
(0.59017 -0.028972 -0.106131)
(0.59017 -0.0340009 -0.104628)
(0.59017 -0.0185029 -0.108447)
(0.59017 -0.0238013 -0.107408)
(0.59017 -0.00758764 -0.109752)
(0.59017 -0.0130925 -0.109232)
(0.59017 0.00357224 -0.109956)
(0.59017 -0.00200727 -0.109996)
(0.59017 0.0146098 -0.10904)
(0.59017 0.00908556 -0.109638)
(0.59017 0.0256057 -0.106992)
(0.59017 0.0201238 -0.108157)
(0.59017 0.0363863 -0.103823)
(0.59017 0.0310336 -0.105546)
(0.59017 0.0467819 -0.099572)
(0.59017 0.0416425 -0.101828)
(0.59017 0.056635 -0.0943163)
(0.59017 0.0517854 -0.097064)
(0.59017 0.0658079 -0.0881612)
(0.59017 0.0613141 -0.0913436)
(0.59017 0.0741898 -0.0812338)
(0.59017 0.0701036 -0.0847858)
(0.59017 0.0816986 -0.0736776)
(0.59017 0.078057 -0.077525)
(0.59017 0.0882856 -0.0656407)
(0.59017 0.0851098 -0.0697098)
(0.59017 0.094247 -0.0567511)
(0.59017 0.0913859 -0.0612514)
(0.59017 0.0968214 -0.0522371)
)


// edges:

256
(
(0 1)
(2 3)
(4 5)
(1 6)
(7 8)
(9 7)
(8 0)
(10 11)
(3 10)
(12 2)
(13 12)
(11 9)
(14 15)
(16 14)
(17 4)
(5 16)
(18 19)
(20 18)
(21 22)
(23 21)
(22 20)
(19 17)
(15 13)
(24 25)
(26 27)
(28 26)
(25 29)
(29 28)
(30 31)
(32 30)
(31 24)
(27 23)
(33 34)
(35 36)
(37 38)
(34 32)
(39 40)
(41 39)
(40 33)
(42 43)
(43 41)
(44 35)
(36 42)
(45 46)
(47 44)
(48 47)
(49 50)
(38 49)
(50 48)
(51 37)
(52 51)
(53 54)
(46 55)
(55 53)
(54 52)
(56 57)
(58 45)
(59 58)
(60 61)
(57 60)
(61 59)
(62 56)
(63 64)
(64 62)
(65 66)
(67 68)
(69 70)
(66 63)
(71 72)
(73 71)
(72 65)
(74 75)
(68 74)
(76 67)
(77 76)
(75 73)
(78 79)
(80 78)
(81 69)
(70 80)
(82 83)
(84 82)
(85 86)
(87 85)
(86 84)
(83 81)
(79 77)
(88 89)
(90 91)
(92 90)
(89 93)
(93 92)
(94 95)
(96 97)
(97 94)
(95 88)
(91 87)
(98 96)
(99 100)
(101 102)
(103 98)
(104 105)
(106 104)
(105 103)
(100 107)
(107 106)
(108 109)
(109 99)
(110 108)
(111 110)
(102 112)
(112 111)
(113 114)
(115 113)
(116 117)
(118 119)
(119 116)
(117 115)
(114 101)
(120 118)
(121 122)
(123 120)
(124 123)
(122 125)
(125 124)
(126 127)
(6 126)
(127 121)
(128 129)
(129 130)
(131 132)
(133 134)
(134 131)
(132 128)
(135 136)
(137 138)
(138 135)
(139 140)
(141 142)
(142 139)
(140 137)
(136 133)
(143 144)
(145 146)
(146 143)
(147 148)
(149 150)
(150 147)
(148 145)
(151 152)
(153 154)
(154 151)
(155 156)
(157 158)
(158 155)
(156 153)
(152 149)
(144 141)
(159 160)
(161 162)
(162 159)
(163 164)
(165 166)
(166 163)
(164 161)
(167 168)
(169 170)
(170 167)
(171 172)
(173 174)
(174 171)
(172 169)
(168 165)
(175 176)
(177 178)
(178 175)
(179 180)
(181 182)
(182 179)
(180 177)
(183 184)
(185 186)
(186 183)
(187 188)
(189 190)
(191 189)
(190 187)
(188 185)
(184 181)
(176 173)
(160 157)
(130 192)
(193 194)
(195 196)
(196 193)
(197 198)
(199 200)
(200 197)
(198 195)
(201 202)
(203 204)
(204 201)
(205 206)
(207 208)
(208 205)
(206 203)
(202 199)
(209 210)
(211 212)
(212 209)
(213 214)
(215 216)
(216 213)
(214 211)
(217 218)
(219 220)
(220 217)
(221 222)
(223 224)
(224 221)
(222 219)
(218 215)
(210 207)
(225 226)
(227 228)
(228 225)
(229 230)
(231 232)
(232 229)
(230 227)
(233 234)
(235 236)
(236 233)
(237 238)
(239 240)
(240 237)
(238 235)
(234 231)
(241 242)
(243 244)
(244 241)
(245 246)
(247 248)
(248 245)
(246 243)
(249 250)
(251 252)
(252 249)
(253 254)
(255 253)
(254 251)
(250 247)
(242 239)
(226 223)
(194 191)
(192 255)
)

// * * * * * * * * * * * * * * * * * * * * * * * * * * * * * * * * * * * * * //


// ************************************************************************* //
