/*--------------------------------*- C++ -*----------------------------------*\
| =========                 |                                                 |
| \\      /  F ield         | OpenFOAM: The Open Source CFD Toolbox           |
|  \\    /   O peration     | Version:  v1912                                 |
|   \\  /    A nd           | Website:  www.openfoam.com                      |
|    \\/     M anipulation  |                                                 |
\*---------------------------------------------------------------------------*/
FoamFile
{
    version     2.0;
    format      ascii;
    class       dictionary;
    object      blockMeshDict;
}

// * * * * * * * * * * * * * * * * * * * * * * * * * * * * * * * * * * * * * //

scale   1;

vertices
(
    (-2.8 -3 -2.8)
    (4.2 -3 -2.8)
    (4.2 0 -2.8)
    (-2.8 0 -2.8)

    (-2.8 -3 -0.3)
    (4.2 -3 -0.3)
    (4.2 0 -0.3)
    (-2.8 0 -0.3)

    (-2.8 -3 0.25)
    (4.2 -3 0.25)
    (4.2 0 0.25)
    (-2.8 0 0.25)

    (-2.8 -3 1.4)
    (4.2 -3 1.4)
    (4.2 0 1.4)
    (-2.8 0 1.4)
);

blocks
(
    hex (0 1 2 3 4 5 6 7) (15 6 31) simpleGrading (1 1 0.05)
    hex (4 5 6 7 8 9 10 11) (15 6 70) simpleGrading (1 1 1)
    hex (8 9 10 11 12 13 14 15) (15 6 15) simpleGrading (1 1 15)
);

edges
(
);

boundary
(
    top
    {
        type patch;
        faces
        (
            (13 12 15 14)
        );
    }
    inlet
    {
        type patch;
        faces
        (
            (3 7 4 0)
            (7 11 8 4)
            (11 15 12 8)
        );
    }
    outlet
    {
        type patch;
        faces
        (
            (1 5 6 2)
            (5 9 10 6)
            (9 13 14 10)
        );
    }
    bottom
    {
        type symmetryPlane;
        faces
        (
            (0 1 2 3)
        );
    }
    side
    {
        type symmetryPlane;
        faces
        (
            (0 4 5 1)
            (4 8 9 5)
            (8 12 13 9)
        );
    }
    midPlane
    {
        type symmetryPlane;
        faces
        (
            (2 6 7 3)
            (6 10 11 7)
            (10 14 15 11)
        );
    }
);

// ************************************************************************* //
