/*--------------------------------*- C++ -*----------------------------------*\
| =========                 |                                                 |
| \\      /  F ield         | OpenFOAM: The Open Source CFD Toolbox           |
|  \\    /   O peration     | Version:  v1912                                 |
|   \\  /    A nd           | Website:  www.openfoam.com                      |
|    \\/     M anipulation  |                                                 |
\*---------------------------------------------------------------------------*/
FoamFile
{
    version     2.0;
    format      ascii;
    class       dictionary;
    location    "system";
    object      controlDict;
}
// * * * * * * * * * * * * * * * * * * * * * * * * * * * * * * * * * * * * * //

application     pimpleFoam;

startFrom       startTime;

startTime       0;

stopAt          endTime;

endTime         endTime*;

deltaT          1e-5;

writeControl    adjustableRunTime;

writeInterval   writeInterval*;

purgeWrite      3;

writeFormat     ascii;

writePrecision  6;

writeCompression off;

timeFormat      general;

timePrecision   6;

runTimeModifiable true;

adjustTimeStep  yes;

maxCo           10;
maxAlphaCo      3;
maxDeltaT       0.01;

functions
{
    forces
    {
        type            forces;
        libs            ("libforces.so");
        patches         (hull);
        rhoInf          rhoInf*;
        log             on;
        writeControl    timeStep;
        writeInterval   1;
        CofR            (0 0 0);
    }
}

// ************************************************************************* //
