/*--------------------------------*- C++ -*----------------------------------*\
| =========                 |                                                 |
| \\      /  F ield         | OpenFOAM: The Open Source CFD Toolbox           |
|  \\    /   O peration     | Version:  v1906                                 |
|   \\  /    A nd           | Web:      www.OpenFOAM.com                      |
|    \\/     M anipulation  |                                                 |
\*---------------------------------------------------------------------------*/
FoamFile
{
    version     2.0;
    format      ascii;
    class       extendedFeatureEdgeMesh;
    location    "constant/extendedFeatureEdgeMesh";
    object      hull_trim.extendedFeatureEdgeMesh;
}
// * * * * * * * * * * * * * * * * * * * * * * * * * * * * * * * * * * * * * //

// points

64
(
(-0.006968708 0.333333 -0.03615236)
(-0.09401429 0.333333 -0.03952511)
(-0.1810594 0.333333 -0.04289785)
(-0.2681051 0.333333 -0.0462706)
(-0.3551507 0.333333 -0.04964335)
(-0.4421964 0.333333 -0.05301611)
(-0.5292421 0.333333 -0.05638886)
(-0.6162878 0.333333 -0.05976162)
(-0.7033335 0.333333 -0.06313437)
(-0.7903792 0.333333 -0.06650712)
(-0.8774248 0.333333 -0.06987988)
(-0.9644705 0.333333 -0.07325263)
(-1.051515 0.333333 -0.07662535)
(-1.13856 0.333333 -0.07999806)
(-1.225605 0.333333 -0.08337078)
(-1.312649 0.333333 -0.0867435)
(-0.09401429 -0.313332 -0.03952511)
(-0.006968708 -0.313332 -0.03615236)
(-0.006968708 -0.333332 -0.03615236)
(-0.09401429 -0.333332 -0.03952511)
(-0.2681051 -0.313332 -0.0462706)
(-0.1810594 -0.313332 -0.04289785)
(-0.1810594 -0.333332 -0.04289785)
(-0.2681051 -0.333332 -0.0462706)
(-0.4421964 -0.313332 -0.05301611)
(-0.3551507 -0.313332 -0.04964335)
(-0.3551507 -0.333332 -0.04964335)
(-0.4421964 -0.333332 -0.05301611)
(-0.5292421 -0.333332 -0.05638886)
(-0.6162878 -0.333332 -0.05976162)
(-0.6162878 -0.313332 -0.05976162)
(-0.5292421 -0.313332 -0.05638886)
(-0.7033335 -0.333332 -0.06313437)
(-0.7033335 -0.313332 -0.06313437)
(-0.7903792 -0.333332 -0.06650712)
(-0.7903792 -0.313332 -0.06650712)
(-0.9644705 -0.313332 -0.07325263)
(-0.8774248 -0.313332 -0.06987988)
(-0.8774248 -0.333332 -0.06987988)
(-0.9644705 -0.333332 -0.07325263)
(-1.051515 -0.333332 -0.07662535)
(-1.13856 -0.333332 -0.07999806)
(-1.13856 -0.313332 -0.07999806)
(-1.051515 -0.313332 -0.07662535)
(-1.225605 -0.333332 -0.08337078)
(-1.312649 -0.333332 -0.0867435)
(-1.312649 -0.313332 -0.0867435)
(-1.225605 -0.313332 -0.08337078)
(-0.006968708 0.313333 -0.03615236)
(-0.09401429 0.313333 -0.03952511)
(-0.1810594 0.313333 -0.04289785)
(-0.2681051 0.313333 -0.0462706)
(-0.3551507 0.313333 -0.04964335)
(-0.4421964 0.313333 -0.05301611)
(-0.5292421 0.313333 -0.05638886)
(-0.6162878 0.313333 -0.05976162)
(-0.7033335 0.313333 -0.06313437)
(-0.7903792 0.313333 -0.06650712)
(-0.8774248 0.313333 -0.06987988)
(-0.9644705 0.313333 -0.07325263)
(-1.051515 0.313333 -0.07662535)
(-1.13856 0.313333 -0.07999806)
(-1.225605 0.313333 -0.08337078)
(-1.312649 0.313333 -0.0867435)
)

// edges

60
(
(0 1)
(1 2)
(3 4)
(4 5)
(2 3)
(6 7)
(7 8)
(9 10)
(11 12)
(10 11)
(8 9)
(5 6)
(13 14)
(12 13)
(14 15)
(16 17)
(18 19)
(20 21)
(22 23)
(21 16)
(19 22)
(24 25)
(26 27)
(28 29)
(30 31)
(27 28)
(31 24)
(25 20)
(23 26)
(29 32)
(33 30)
(32 34)
(35 33)
(36 37)
(38 39)
(37 35)
(34 38)
(40 41)
(42 43)
(44 45)
(46 47)
(41 44)
(47 42)
(43 36)
(39 40)
(48 49)
(50 51)
(49 50)
(52 53)
(54 55)
(53 54)
(51 52)
(55 56)
(56 57)
(58 59)
(57 58)
(60 61)
(62 63)
(61 62)
(59 60)
)

// concaveStart mixedStart nonFeatureStart
0 0 0
// internalStart flatStart openStart multipleStart
60 60 60 60
// normals

120
(
(0 1 0)
(0.0387179 0 -0.9992502)
(0 1 0)
(0.03871791 0 -0.9992502)
(0 1 0)
(0.0387179 0 -0.9992502)
(0 1 0)
(0.0387179 0 -0.9992502)
(0 1 0)
(0.03871785 0 -0.9992502)
(0 1 0)
(0.03871788 0 -0.9992502)
(0 1 0)
(0.0387179 0 -0.9992502)
(0 1 0)
(0.03871795 0 -0.9992502)
(0 1 0)
(0.03871794 0 -0.9992502)
(0 1 -0)
(0.03871786 0 -0.9992502)
(0 1 -0)
(0.03871786 0 -0.9992502)
(0 1 0)
(0.03871789 0 -0.9992502)
(0 1 0)
(0.03871794 0 -0.9992502)
(0 1 0)
(0.03871783 0 -0.9992502)
(0 1 0)
(0.03871786 0 -0.9992502)
(0.0387179 0 -0.9992502)
(0.01950866 0.8637815 -0.5034887)
(0.0387179 0 -0.9992502)
(0 -1 -0)
(0.03871785 0 -0.9992502)
(0.01950863 0.8637815 -0.5034888)
(0.03871785 0 -0.9992502)
(0 -1 0)
(0.03871791 0 -0.9992502)
(0.01950866 0.8637815 -0.5034888)
(0.03871791 0 -0.9992502)
(0 -1 0)
(0.0387179 0 -0.9992502)
(0.01950866 0.8637815 -0.5034888)
(0.0387179 0 -0.9992502)
(0 -1 0)
(0.03871788 0 -0.9992502)
(0 -1 0)
(0.03871788 0 -0.9992502)
(0.01950864 0.8637815 -0.5034888)
(0.03871789 0 -0.9992502)
(0 -1 -0)
(0.03871789 0 -0.9992502)
(0.01950865 0.8637815 -0.5034888)
(0.0387179 0 -0.9992502)
(0.01950866 0.8637815 -0.5034888)
(0.0387179 0 -0.9992502)
(0 -1 0)
(0.0387179 0 -0.9992502)
(0 -1 0)
(0.0387179 0 -0.9992502)
(0.01950866 0.8637815 -0.5034887)
(0.03871786 0 -0.9992502)
(0 -1 0)
(0.03871786 0 -0.9992502)
(0.01950864 0.8637815 -0.5034888)
(0.03871786 0 -0.9992502)
(0.01950863 0.8637815 -0.5034887)
(0.03871786 0 -0.9992502)
(0 -1 0)
(0.03871795 0 -0.9992502)
(0.01950868 0.8637815 -0.5034888)
(0.03871795 0 -0.9992502)
(0 -1 0)
(0.03871783 0 -0.9992502)
(0 -1 -0)
(0.03871783 0 -0.9992502)
(0.01950862 0.8637815 -0.5034887)
(0.03871786 0 -0.9992502)
(0 -1 -0)
(0.03871786 0 -0.9992502)
(0.01950863 0.8637816 -0.5034885)
(0.03871794 0 -0.9992502)
(0 -1 0)
(0.03871794 0 -0.9992502)
(0.01950866 0.8637817 -0.5034884)
(0.03871794 0 -0.9992502)
(0.01950868 0.8637815 -0.5034887)
(0.03871794 0 -0.9992502)
(0 -1 0)
(0.0387179 0 -0.9992502)
(0.01950866 -0.8637815 -0.5034887)
(0.03871785 0 -0.9992502)
(0.01950863 -0.8637815 -0.5034888)
(0.03871791 0 -0.9992502)
(0.01950866 -0.8637815 -0.5034888)
(0.0387179 0 -0.9992502)
(0.01950866 -0.8637815 -0.5034888)
(0.03871788 0 -0.9992502)
(0.01950864 -0.8637815 -0.5034888)
(0.03871789 0 -0.9992502)
(0.01950865 -0.8637815 -0.5034888)
(0.0387179 0 -0.9992502)
(0.01950866 -0.8637815 -0.5034888)
(0.0387179 0 -0.9992502)
(0.01950866 -0.8637815 -0.5034887)
(0.03871786 0 -0.9992502)
(0.01950864 -0.8637815 -0.5034888)
(0.03871786 0 -0.9992502)
(0.01950864 -0.8637815 -0.5034888)
(0.03871795 0 -0.9992502)
(0.01950868 -0.8637815 -0.5034888)
(0.03871783 0 -0.9992502)
(0.01950862 -0.8637815 -0.5034887)
(0.03871786 0 -0.9992502)
(0.01950864 -0.8637814 -0.503489)
(0.03871794 0 -0.9992502)
(0.01950868 -0.8637814 -0.5034889)
(0.03871794 0 -0.9992502)
(0.01950868 -0.8637815 -0.5034887)
)

// normal volume types

120
(
0
0
0
0
0
0
0
0
0
0
0
0
0
0
0
0
0
0
0
0
0
0
0
0
0
0
0
0
0
0
0
0
0
0
0
0
0
0
0
0
0
0
0
0
0
0
0
0
0
0
0
0
0
0
0
0
0
0
0
0
0
0
0
0
0
0
0
0
0
0
0
0
0
0
0
0
0
0
0
0
0
0
0
0
0
0
0
0
0
0
0
0
0
0
0
0
0
0
0
0
0
0
0
0
0
0
0
0
0
0
0
0
0
0
0
0
0
0
0
0
)

// normalDirections

60
(
2(1 -1)
2(1 -1)
2(1 -1)
2(1 -1)
2(1 -1)
2(1 -1)
2(1 -1)
2(1 -1)
2(1 -1)
2(1 -1)
2(1 -1)
2(1 -1)
2(1 -1)
2(1 -1)
2(1 -1)
2(1 -1)
2(1 -1)
2(1 -1)
2(1 -1)
2(1 -1)
2(1 -1)
2(1 -1)
2(1 -1)
2(1 -1)
2(1 -1)
2(1 -1)
2(1 -1)
2(1 -1)
2(1 -1)
2(1 -1)
2(1 -1)
2(1 -1)
2(1 -1)
2(1 -1)
2(1 -1)
2(1 -1)
2(1 -1)
2(1 -1)
2(1 -1)
2(1 -1)
2(1 -1)
2(1 -1)
2(1 -1)
2(1 -1)
2(1 -1)
2(1 -1)
2(1 -1)
2(1 -1)
2(1 -1)
2(1 -1)
2(1 -1)
2(1 -1)
2(1 -1)
2(1 -1)
2(1 -1)
2(1 -1)
2(1 -1)
2(1 -1)
2(1 -1)
2(1 -1)
)

// edgeNormals

60
(
2(0 1)
2(2 3)
2(4 5)
2(6 7)
2(8 9)
2(10 11)
2(12 13)
2(14 15)
2(16 17)
2(18 19)
2(20 21)
2(22 23)
2(24 25)
2(26 27)
2(28 29)
2(30 31)
2(32 33)
2(34 35)
2(36 37)
2(38 39)
2(40 41)
2(42 43)
2(44 45)
2(46 47)
2(48 49)
2(50 51)
2(52 53)
2(54 55)
2(56 57)
2(58 59)
2(60 61)
2(62 63)
2(64 65)
2(66 67)
2(68 69)
2(70 71)
2(72 73)
2(74 75)
2(76 77)
2(78 79)
2(80 81)
2(82 83)
2(84 85)
2(86 87)
2(88 89)
2(90 91)
2(92 93)
2(94 95)
2(96 97)
2(98 99)
2(100 101)
2(102 103)
2(104 105)
2(106 107)
2(108 109)
2(110 111)
2(112 113)
2(114 115)
2(116 117)
2(118 119)
)

// featurePointNormals
0()
// featurePointEdges
0()
// regionEdges
0()


// ************************************************************************* //
