/*--------------------------------*- C++ -*----------------------------------*\
| =========                 |                                                 |
| \\      /  F ield         | OpenFOAM: The Open Source CFD Toolbox           |
|  \\    /   O peration     | Version:  v1912                                 |
|   \\  /    A nd           | Website:  www.openfoam.com                      |
|    \\/     M anipulation  |                                                 |
\*---------------------------------------------------------------------------*/
FoamFile
{
    version     2.0;
    format      ascii;
    class       dictionary;
    object      surfaceFeatureExtractDict;
}
// * * * * * * * * * * * * * * * * * * * * * * * * * * * * * * * * * * * * * //

propeller.stl
{
    #include "surfaceFeatureExtractDictDefaults"
}
propellerCylinder.stl
{
    #include "surfaceFeatureExtractDictDefaults"
}
inlet.stl
{
    #include "surfaceFeatureExtractDictDefaults"
}
outlet.stl
{
    #include "surfaceFeatureExtractDictDefaults"
}
outerCylinder.stl
{
    #include "surfaceFeatureExtractDictDefaults"
}


// ************************************************************************* //
